Spectre (R) Circuit Simulator
Version 16.1.0.479.isr9 64bit -- 7 Sep 2017
Simulating `input.scs' on wario at 9:54:29 PM, Wed Feb 28, 2018 (process id: 32227).
H = mpsImport( "spectre" "ipi" "v0.0" ?session "spectre0_20019_2" )
H->sclSetResultDir( "../psf" )
H->sclRun( "all" )
sclCkt0x9834770 = H->sclGetCircuit(  "" )
sclParam0x9834770 = H->sclGetParameter( sclCkt0x9834770 "vga" )
H->sclSetAttribute( sclParam0x9834770 "value" "1.2" )
H->sclSetResultDir( "../psf" )
H->sclRun( "all" )
sclCkt0x9834770 = H->sclGetCircuit(  "" )
sclParam0x9834771 = H->sclGetParameter( sclCkt0x9834770 "vgb" )
H->sclSetAttribute( sclParam0x9834771 "value" "1.2" )
H->sclSetResultDir( "../psf" )
H->sclRun( "all" )
sclCkt0x9834770 = H->sclGetCircuit(  "" )
sclParam0x9834772 = H->sclGetParameter( sclCkt0x9834770 "vgc" )
H->sclSetAttribute( sclParam0x9834772 "value" "1.2" )
H->sclSetResultDir( "../psf" )
H->sclRun( "all" )
sclCkt0x9834770 = H->sclGetCircuit(  "" )
sclParam0x9834773 = H->sclGetParameter( sclCkt0x9834770 "vga" )
H->sclSetAttribute( sclParam0x9834773 "value" "0" )
sclCkt0x9834770 = H->sclGetCircuit(  "" )
sclParam0x9834774 = H->sclGetParameter( sclCkt0x9834770 "vgb" )
H->sclSetAttribute( sclParam0x9834774 "value" "0" )
H->sclSetResultDir( "../psf" )
H->sclRun( "all" )
sclCkt0x9834770 = H->sclGetCircuit(  "" )
sclParam0x9834775 = H->sclGetParameter( sclCkt0x9834770 "vgb" )
H->sclSetAttribute( sclParam0x9834775 "value" "1.2" )
sclCkt0x9834770 = H->sclGetCircuit(  "" )
sclParam0x9834776 = H->sclGetParameter( sclCkt0x9834770 "vgc" )
H->sclSetAttribute( sclParam0x9834776 "value" "0" )
H->sclSetResultDir( "../psf" )
H->sclRun( "all" )
sclCkt0x9834770 = H->sclGetCircuit(  "" )
sclParam0x9834777 = H->sclGetParameter( sclCkt0x9834770 "vgc" )
H->sclSetAttribute( sclParam0x9834777 "value" "1.2" )
H->sclSetResultDir( "../psf" )
H->sclRun( "all" )
sclCkt0x9834770 = H->sclGetCircuit(  "" )
sclParam0x9834778 = H->sclGetParameter( sclCkt0x9834770 "vga" )
H->sclSetAttribute( sclParam0x9834778 "value" "1.2" )
sclCkt0x9834770 = H->sclGetCircuit(  "" )
sclParam0x9834779 = H->sclGetParameter( sclCkt0x9834770 "vgb" )
H->sclSetAttribute( sclParam0x9834779 "value" "0" )
sclCkt0x9834770 = H->sclGetCircuit(  "" )
sclParam0x983477a = H->sclGetParameter( sclCkt0x9834770 "vgc" )
H->sclSetAttribute( sclParam0x983477a "value" "0" )
H->sclSetResultDir( "../psf" )
H->sclRun( "all" )
sclCkt0x9834770 = H->sclGetCircuit(  "" )
sclParam0x983477b = H->sclGetParameter( sclCkt0x9834770 "vgc" )
H->sclSetAttribute( sclParam0x983477b "value" "1.2" )
H->sclSetResultDir( "../psf" )
H->sclRun( "all" )
sclCkt0x9834770 = H->sclGetCircuit(  "" )
sclParam0x983477c = H->sclGetParameter( sclCkt0x9834770 "vga" )
H->sclSetAttribute( sclParam0x983477c "value" "0" )
sclCkt0x9834770 = H->sclGetCircuit(  "" )
sclParam0x983477d = H->sclGetParameter( sclCkt0x9834770 "vgb" )
H->sclSetAttribute( sclParam0x983477d "value" "1.2" )
sclCkt0x9834770 = H->sclGetCircuit(  "" )
sclParam0x983477e = H->sclGetParameter( sclCkt0x9834770 "vgc" )
H->sclSetAttribute( sclParam0x983477e "value" "0" )
H->sclSetResultDir( "../psf" )
H->sclRun( "all" )
sclCkt0x9834770 = H->sclGetCircuit(  "" )
H->sclQuit(  )
