
Spectre (R) Circuit Simulator
Version 16.1.0.479.isr9 64bit -- 7 Sep 2017
Copyright (C) 1989-2017 Cadence Design Systems, Inc. All rights reserved worldwide. Cadence and Spectre are registered trademarks of Cadence Design Systems, Inc. All others are the property of their respective holders.

Includes RSA BSAFE(R) Cryptographic or Security Protocol Software from RSA Security, Inc.

User: agroszewski   Host: wario   HostID: 6924DDD   PID: 1704
Memory  available: 55.0483 GB  physical: 101.4334 GB
Linux   : CentOS release 6.9 (Final)
CPU Type: Intel(R) Xeon(R) CPU           X5660  @ 2.80GHz
All processors running at 1600.0 MHz
        Socket: Processors (Hyperthreaded Processor)
        0:       0 ( 12 ),  1 ( 13 ),  2 ( 14 ),  3 ( 15 ),  4 ( 16 )
                 5 ( 17 )
        1:       6 ( 18 ),  7 ( 19 ),  8 ( 20 ),  9 ( 21 ), 10 ( 22 )
                11 ( 23 )
        
System load averages (1min, 5min, 15min) : 776.8 %, 775.5 %, 774.3 %
Hyperthreading is enabled


Simulating `input.scs' on wario at 3:22:37 PM, Sat Feb 17, 2018 (process id: 1704).
Current working directory: /home/ecelrc/students/agroszewski/simulation/pmos_vth/spectre/schematic/netlist
Command line:
    /usr/local/packages/cadence_2017/spectre161/tools.lnx86/bin/spectre  \
        -64 input.scs +escchars +log ../psf/spectre.out +inter=mpsc  \
        +mpssession=spectre11_28288_35 -format psfxl -raw ../psf  \
        +lqtimeout 900 -maxw 5 -maxn 5
spectre pid = 1704

Loading /usr/local/packages/cadence_2017/spectre161/tools.lnx86/cmi/lib/64bit/5.0/libinfineon_sh.so ...
Loading /usr/local/packages/cadence_2017/spectre161/tools.lnx86/cmi/lib/64bit/5.0/libphilips_o_sh.so ...
Loading /usr/local/packages/cadence_2017/spectre161/tools.lnx86/cmi/lib/64bit/5.0/libphilips_sh.so ...
Loading /usr/local/packages/cadence_2017/spectre161/tools.lnx86/cmi/lib/64bit/5.0/libsparam_sh.so ...
Loading /usr/local/packages/cadence_2017/spectre161/tools.lnx86/cmi/lib/64bit/5.0/libstmodels_sh.so ...
Reading file:  /home/ecelrc/students/agroszewski/simulation/pmos_vth/spectre/schematic/netlist/input.scs
Reading link:  /usr/local/packages
Reading file:  /misc/linuxws/packages/cadence_2017/spectre161/tools.lnx86/spectre/etc/configs/mapsubckt.cfg
Reading file:  /misc/linuxws/packages/cadence_2017/spectre161/tools.lnx86/spectre/etc/configs/spectre.cfg
Reading file:  /home/ecelrc/students/agroszewski/lpr/schematics/models/32nm_LP.pm
Reading file:  /home/ecelrc/students/agroszewski/simulation/pmos_vth/spectre/schematic/netlist/_graphical_stimuli.scs
Time for NDB Parsing: CPU = 139.979 ms, elapsed = 260.944 ms.
Time accumulated: CPU = 175.973 ms, elapsed = 260.95 ms.
Peak resident memory used = 44.7 Mbytes.


The CPU load for active processors is :
        Spectre  0 (4.0 %)       1 (3.8 %)       2 (7.4 %)       6 (15.4 %)
                 7 (7.7 %)       8 (3.8 %)       9 (3.8 %)      12 (3.8 %)
                13 (12.5 %)     14 (8.3 %)      19 (7.7 %)      20 (8.0 %)
                21 (3.7 %)      22 (7.4 %)      23 (46.2 %)     
        Other   
Reading link:  /usr/local/packages/cadence_2017/spectre161/tools.lnx86/spectre/etc/ahdl/discipline.h
Reading file:  /misc/linuxws/packages/cadence_2017/spectre161/tools.lnx86/spectre/etc/ahdl/disciplines.vams
Reading link:  /usr/local/packages/cadence_2017/spectre161/tools.lnx86/spectre/etc/ahdl/constants.h
Reading file:  /misc/linuxws/packages/cadence_2017/spectre161/tools.lnx86/spectre/etc/ahdl/constants.vams
Time for Elaboration: CPU = 24.996 ms, elapsed = 27.9889 ms.
Time accumulated: CPU = 201.968 ms, elapsed = 289.118 ms.
Peak resident memory used = 51.1 Mbytes.


Time for EDB Visiting: CPU = 0 s, elapsed = 679.97 us.
Time accumulated: CPU = 201.968 ms, elapsed = 289.938 ms.
Peak resident memory used = 51.7 Mbytes.


Global user options:
             reltol = 0.001
            vabstol = 1e-06
            iabstol = 1e-12
               temp = 27
               gmin = 1e-12
             rforce = 1
           maxnotes = 5
           maxwarns = 5
             digits = 5
               cols = 80
             pivrel = 0.001
           sensfile = ../psf/sens.output
     checklimitdest = psf
               save = allpub
               tnom = 27
             scalem = 1
              scale = 1

Scoped user options:

Circuit inventory:
              nodes 3
              bsim4 1     
            vsource 3     

Analysis and control statement inventory:
                 dc 2     
               info 7     

Output statements:
             .probe 0     
           .measure 0     
               save 1     

Time for parsing: CPU = 3 ms, elapsed = 4.36997 ms.
Time accumulated: CPU = 205.968 ms, elapsed = 294.461 ms.
Peak resident memory used = 52.9 Mbytes.

~~~~~~~~~~~~~~~~~~~~~~
Pre-Simulation Summary
~~~~~~~~~~~~~~~~~~~~~~
~~~~~~~~~~~~~~~~~~~~~~
Entering remote command mode using MPSC service (spectre, ipi, v0.0, spectre11_28288_35, ).

Warning from spectre.
    WARNING (SPECTRE-16707): Only tran supports psfxl format, result of other analyses will be in psfbin format.


******************
DC Analysis `dcOp'
******************

Opening the PSF file ../psf/dcOp.dc ...
Important parameter values:
    reltol = 1e-03
    abstol(V) = 1 uV
    abstol(I) = 1 pA
    temp = 27 C
    tnom = 27 C
    tempeffects = all
    gmindc = 1 pS

Maximum value achieved for any signal of each quantity: 
V: V(net03) = 1.2 V
I: I(Vds:p) = 12.58 uA
Convergence achieved in 2 iterations.
DC simulation time: CPU = 212.966 ms, elapsed = 339.433 ms.
Total time required for dc analysis `dcOp': CPU = 5.998 ms, elapsed = 10.5951 ms.
Time accumulated: CPU = 212.966 ms, elapsed = 340.559 ms.
Peak resident memory used = 54.5 Mbytes.

dcOpInfo: writing operating point information to rawfile.

Opening the PSF file ../psf/dcOpInfo.info ...

**************************************
DC Analysis `dc': Vsweep = (0 -> -1.2)
**************************************

Opening the PSF file ../psf/dc.dc ...
Important parameter values:
    reltol = 1e-03
    abstol(V) = 1 uV
    abstol(I) = 1 pA
    temp = 27 C
    tnom = 27 C
    tempeffects = all
    gmindc = 1 pS
    dc: Vsweep = -48e-03        (4 %), step = -24e-03         (2 %)
    dc: Vsweep = -72e-03        (6 %), step = -24e-03         (2 %)
    dc: Vsweep = -96e-03        (8 %), step = -24e-03         (2 %)
    dc: Vsweep = -120e-03      (10 %), step = -24e-03         (2 %)
    dc: Vsweep = -144e-03      (12 %), step = -24e-03         (2 %)
    dc: Vsweep = -168e-03      (14 %), step = -24e-03         (2 %)
    dc: Vsweep = -192e-03      (16 %), step = -24e-03         (2 %)
    dc: Vsweep = -216e-03      (18 %), step = -24e-03         (2 %)
    dc: Vsweep = -240e-03      (20 %), step = -24e-03         (2 %)
    dc: Vsweep = -264e-03      (22 %), step = -24e-03         (2 %)
    dc: Vsweep = -288e-03      (24 %), step = -24e-03         (2 %)
    dc: Vsweep = -312e-03      (26 %), step = -24e-03         (2 %)
    dc: Vsweep = -336e-03      (28 %), step = -24e-03         (2 %)
    dc: Vsweep = -360e-03      (30 %), step = -24e-03         (2 %)
    dc: Vsweep = -384e-03      (32 %), step = -24e-03         (2 %)
    dc: Vsweep = -408e-03      (34 %), step = -24e-03         (2 %)
    dc: Vsweep = -432e-03      (36 %), step = -24e-03         (2 %)
    dc: Vsweep = -456e-03      (38 %), step = -24e-03         (2 %)
    dc: Vsweep = -480e-03      (40 %), step = -24e-03         (2 %)
    dc: Vsweep = -504e-03      (42 %), step = -24e-03         (2 %)
    dc: Vsweep = -528e-03      (44 %), step = -24e-03         (2 %)
    dc: Vsweep = -552e-03      (46 %), step = -24e-03         (2 %)
    dc: Vsweep = -576e-03      (48 %), step = -24e-03         (2 %)
    dc: Vsweep = -600e-03      (50 %), step = -24e-03         (2 %)
    dc: Vsweep = -624e-03      (52 %), step = -24e-03         (2 %)
    dc: Vsweep = -648e-03      (54 %), step = -24e-03         (2 %)
    dc: Vsweep = -672e-03      (56 %), step = -24e-03         (2 %)
    dc: Vsweep = -696e-03      (58 %), step = -24e-03         (2 %)
    dc: Vsweep = -720e-03      (60 %), step = -24e-03         (2 %)
    dc: Vsweep = -744e-03      (62 %), step = -24e-03         (2 %)
    dc: Vsweep = -768e-03      (64 %), step = -24e-03         (2 %)
    dc: Vsweep = -792e-03      (66 %), step = -24e-03         (2 %)
    dc: Vsweep = -816e-03      (68 %), step = -24e-03         (2 %)
    dc: Vsweep = -840e-03      (70 %), step = -24e-03         (2 %)
    dc: Vsweep = -864e-03      (72 %), step = -24e-03         (2 %)
    dc: Vsweep = -888e-03      (74 %), step = -24e-03         (2 %)
    dc: Vsweep = -912e-03      (76 %), step = -24e-03         (2 %)
    dc: Vsweep = -936e-03      (78 %), step = -24e-03         (2 %)
    dc: Vsweep = -960e-03      (80 %), step = -24e-03         (2 %)
    dc: Vsweep = -984e-03      (82 %), step = -24e-03         (2 %)
    dc: Vsweep = -1.008        (84 %), step = -24e-03         (2 %)
    dc: Vsweep = -1.032        (86 %), step = -24e-03         (2 %)
    dc: Vsweep = -1.056        (88 %), step = -24e-03         (2 %)
    dc: Vsweep = -1.08         (90 %), step = -24e-03         (2 %)
    dc: Vsweep = -1.104        (92 %), step = -24e-03         (2 %)
    dc: Vsweep = -1.128        (94 %), step = -24e-03         (2 %)
    dc: Vsweep = -1.152        (96 %), step = -24e-03         (2 %)
    dc: Vsweep = -1.176        (98 %), step = -24e-03         (2 %)
    dc: Vsweep = -1.2         (100 %), step = -24e-03         (2 %)

Maximum value achieved for any signal of each quantity: 
V: V(Vg) = 1.2 V
I: I(Vds:p) = 167.8 uA
DC simulation time: CPU = 233.964 ms, elapsed = 368.489 ms.
Total time required for dc analysis `dc': CPU = 13.998 ms, elapsed = 16.4561 ms.
Time accumulated: CPU = 233.964 ms, elapsed = 370.339 ms.
Peak resident memory used = 55.1 Mbytes.

modelParameter: writing model parameter values to rawfile.

Opening the PSF file ../psf/modelParameter.info ...
element: writing instance parameter values to rawfile.

Opening the PSF file ../psf/element.info ...
outputParameter: writing output parameter values to rawfile.

Opening the PSF file ../psf/outputParameter.info ...
designParamVals: writing netlist parameters to rawfile.

Opening the PSFASCII file ../psf/designParamVals.info ...
primitives: writing primitives to rawfile.

Opening the PSFASCII file ../psf/primitives.info.primitives ...
subckts: writing subcircuits to rawfile.

Opening the PSFASCII file ../psf/subckts.info.subckts ...

Warning from spectre.
    WARNING (SPECTRE-16707): Only tran supports psfxl format, result of other analyses will be in psfbin format.


******************
DC Analysis `dcOp'
******************

Opening the PSF file ../psf/dcOp.dc ...
Important parameter values:
    reltol = 1e-03
    abstol(V) = 1 uV
    abstol(I) = 1 pA
    temp = 27 C
    tnom = 27 C
    tempeffects = all
    gmindc = 1 pS

Maximum value achieved for any signal of each quantity: 
V: V(net03) = 1.2 V
I: I(Vds:p) = 12.58 uA
Convergence achieved in 2 iterations.
DC simulation time: CPU = 275.957 ms, elapsed = 19.5889 s.
Total time required for dc analysis `dcOp': CPU = 2.999 ms, elapsed = 15.8949 ms.
Time accumulated: CPU = 275.957 ms, elapsed = 19.5902 s.
Peak resident memory used = 55.7 Mbytes.

dcOpInfo: writing operating point information to rawfile.

Opening the PSF file ../psf/dcOpInfo.info ...

**************************************
DC Analysis `dc': Vsweep = (0 -> -1.2)
**************************************

Opening the PSF file ../psf/dc.dc ...
Important parameter values:
    reltol = 1e-03
    abstol(V) = 1 uV
    abstol(I) = 1 pA
    temp = 27 C
    tnom = 27 C
    tempeffects = all
    gmindc = 1 pS
    dc: Vsweep = -48e-03        (4 %), step = -24e-03         (2 %)
    dc: Vsweep = -72e-03        (6 %), step = -24e-03         (2 %)
    dc: Vsweep = -96e-03        (8 %), step = -24e-03         (2 %)
    dc: Vsweep = -120e-03      (10 %), step = -24e-03         (2 %)
    dc: Vsweep = -144e-03      (12 %), step = -24e-03         (2 %)
    dc: Vsweep = -168e-03      (14 %), step = -24e-03         (2 %)
    dc: Vsweep = -192e-03      (16 %), step = -24e-03         (2 %)
    dc: Vsweep = -216e-03      (18 %), step = -24e-03         (2 %)
    dc: Vsweep = -240e-03      (20 %), step = -24e-03         (2 %)
    dc: Vsweep = -264e-03      (22 %), step = -24e-03         (2 %)
    dc: Vsweep = -288e-03      (24 %), step = -24e-03         (2 %)
    dc: Vsweep = -312e-03      (26 %), step = -24e-03         (2 %)
    dc: Vsweep = -336e-03      (28 %), step = -24e-03         (2 %)
    dc: Vsweep = -360e-03      (30 %), step = -24e-03         (2 %)
    dc: Vsweep = -384e-03      (32 %), step = -24e-03         (2 %)
    dc: Vsweep = -408e-03      (34 %), step = -24e-03         (2 %)
    dc: Vsweep = -432e-03      (36 %), step = -24e-03         (2 %)
    dc: Vsweep = -456e-03      (38 %), step = -24e-03         (2 %)
    dc: Vsweep = -480e-03      (40 %), step = -24e-03         (2 %)
    dc: Vsweep = -504e-03      (42 %), step = -24e-03         (2 %)
    dc: Vsweep = -528e-03      (44 %), step = -24e-03         (2 %)
    dc: Vsweep = -552e-03      (46 %), step = -24e-03         (2 %)
    dc: Vsweep = -576e-03      (48 %), step = -24e-03         (2 %)
    dc: Vsweep = -600e-03      (50 %), step = -24e-03         (2 %)
    dc: Vsweep = -624e-03      (52 %), step = -24e-03         (2 %)
    dc: Vsweep = -648e-03      (54 %), step = -24e-03         (2 %)
    dc: Vsweep = -672e-03      (56 %), step = -24e-03         (2 %)
    dc: Vsweep = -696e-03      (58 %), step = -24e-03         (2 %)
    dc: Vsweep = -720e-03      (60 %), step = -24e-03         (2 %)
    dc: Vsweep = -744e-03      (62 %), step = -24e-03         (2 %)
    dc: Vsweep = -768e-03      (64 %), step = -24e-03         (2 %)
    dc: Vsweep = -792e-03      (66 %), step = -24e-03         (2 %)
    dc: Vsweep = -816e-03      (68 %), step = -24e-03         (2 %)
    dc: Vsweep = -840e-03      (70 %), step = -24e-03         (2 %)
    dc: Vsweep = -864e-03      (72 %), step = -24e-03         (2 %)
    dc: Vsweep = -888e-03      (74 %), step = -24e-03         (2 %)
    dc: Vsweep = -912e-03      (76 %), step = -24e-03         (2 %)
    dc: Vsweep = -936e-03      (78 %), step = -24e-03         (2 %)
    dc: Vsweep = -960e-03      (80 %), step = -24e-03         (2 %)
    dc: Vsweep = -984e-03      (82 %), step = -24e-03         (2 %)
    dc: Vsweep = -1.008        (84 %), step = -24e-03         (2 %)
    dc: Vsweep = -1.032        (86 %), step = -24e-03         (2 %)
    dc: Vsweep = -1.056        (88 %), step = -24e-03         (2 %)
    dc: Vsweep = -1.08         (90 %), step = -24e-03         (2 %)
    dc: Vsweep = -1.104        (92 %), step = -24e-03         (2 %)
    dc: Vsweep = -1.128        (94 %), step = -24e-03         (2 %)
    dc: Vsweep = -1.152        (96 %), step = -24e-03         (2 %)
    dc: Vsweep = -1.176        (98 %), step = -24e-03         (2 %)
    dc: Vsweep = -1.2         (100 %), step = -24e-03         (2 %)

Maximum value achieved for any signal of each quantity: 
V: V(Vg) = 1.2 V
I: I(Vds:p) = 167.8 uA
DC simulation time: CPU = 291.955 ms, elapsed = 19.6143 s.
Total time required for dc analysis `dc': CPU = 9.999 ms, elapsed = 12.7668 ms.
Time accumulated: CPU = 292.954 ms, elapsed = 19.6161 s.
Peak resident memory used = 55.9 Mbytes.

modelParameter: writing model parameter values to rawfile.

Opening the PSF file ../psf/modelParameter.info ...
element: writing instance parameter values to rawfile.

Opening the PSF file ../psf/element.info ...
outputParameter: writing output parameter values to rawfile.

Opening the PSF file ../psf/outputParameter.info ...
designParamVals: writing netlist parameters to rawfile.

Opening the PSFASCII file ../psf/designParamVals.info ...
primitives: writing primitives to rawfile.

Opening the PSFASCII file ../psf/primitives.info.primitives ...
subckts: writing subcircuits to rawfile.

Opening the PSFASCII file ../psf/subckts.info.subckts ...

Aggregate audit (6:32:23 PM, Sat Feb 17, 2018):
Time used: CPU = 643 ms, elapsed = 11.4 ks (3h 9m 46s), util. = 5.65e-03%.
Time spent in licensing: elapsed = 23.7 ms.
Peak memory used = 56.6 Mbytes.
Simulation started at: 3:22:37 PM, Sat Feb 17, 2018, ended at: 6:32:23 PM, Sat Feb 17, 2018, with elapsed time (wall clock): 11.4 ks (3h 9m 46s).
spectre completes with 0 errors, 2 warnings, and 0 notices.
