
Spectre (R) Circuit Simulator
Version 16.1.0.479.isr9 64bit -- 7 Sep 2017
Copyright (C) 1989-2017 Cadence Design Systems, Inc. All rights reserved worldwide. Cadence and Spectre are registered trademarks of Cadence Design Systems, Inc. All others are the property of their respective holders.

Includes RSA BSAFE(R) Cryptographic or Security Protocol Software from RSA Security, Inc.

User: agroszewski   Host: wario   HostID: 6924DDD   PID: 14908
Memory  available: 56.1111 GB  physical: 101.4334 GB
Linux   : CentOS release 6.9 (Final)
CPU Type: Intel(R) Xeon(R) CPU           X5660  @ 2.80GHz
        Socket: Processors [Frequency] (Hyperthreaded Processor)
        0:       0 [1600.0] ( 12 ),  1 [1600.0] ( 13 ),  2 [1600.0] ( 14 )
                 3 [1600.0] ( 15 ),  4 [1600.0] ( 16 ),  5 [1600.0] ( 17 )
        1:       6 [1600.0] ( 18 ),  7 [1600.0] ( 19 ),  8 [1600.0] ( 20 )
                 9 [2400.0] ( 21 ), 10 [1600.0] ( 22 ), 11 [1600.0] ( 23 )
        
System load averages (1min, 5min, 15min) : 772.8 %, 773.4 %, 773.4 %
Hyperthreading is enabled


Simulating `input.scs' on wario at 10:46:24 AM, Sat Feb 17, 2018 (process id: 14908).
Current working directory: /home/ecelrc/students/agroszewski/simulation/nmos_vth/spectre/schematic/netlist
Command line:
    /usr/local/packages/cadence_2017/spectre161/tools.lnx86/bin/spectre  \
        -64 input.scs +escchars +log ../psf/spectre.out +inter=mpsc  \
        +mpssession=spectre10_28288_34 -format psfxl -raw ../psf  \
        +lqtimeout 900 -maxw 5 -maxn 5
spectre pid = 14908

Loading /usr/local/packages/cadence_2017/spectre161/tools.lnx86/cmi/lib/64bit/5.0/libinfineon_sh.so ...
Loading /usr/local/packages/cadence_2017/spectre161/tools.lnx86/cmi/lib/64bit/5.0/libphilips_o_sh.so ...
Loading /usr/local/packages/cadence_2017/spectre161/tools.lnx86/cmi/lib/64bit/5.0/libphilips_sh.so ...
Loading /usr/local/packages/cadence_2017/spectre161/tools.lnx86/cmi/lib/64bit/5.0/libsparam_sh.so ...
Loading /usr/local/packages/cadence_2017/spectre161/tools.lnx86/cmi/lib/64bit/5.0/libstmodels_sh.so ...
Reading file:  /home/ecelrc/students/agroszewski/simulation/nmos_vth/spectre/schematic/netlist/input.scs
Reading link:  /usr/local/packages
Reading file:  /misc/linuxws/packages/cadence_2017/spectre161/tools.lnx86/spectre/etc/configs/mapsubckt.cfg
Reading file:  /misc/linuxws/packages/cadence_2017/spectre161/tools.lnx86/spectre/etc/configs/spectre.cfg
Reading file:  /home/ecelrc/students/agroszewski/lpr/schematics/models/32nm_LP.pm
Reading file:  /home/ecelrc/students/agroszewski/simulation/nmos_vth/spectre/schematic/netlist/_graphical_stimuli.scs
Time for NDB Parsing: CPU = 138.98 ms, elapsed = 256.786 ms.
Time accumulated: CPU = 175.973 ms, elapsed = 256.791 ms.
Peak resident memory used = 44.7 Mbytes.


The CPU load for active processors is :
        Spectre  0 (4.0 %)       1 (3.8 %)       2 (4.0 %)       4 (3.8 %)
                 6 (7.7 %)       7 (12.0 %)     12 (4.0 %)      13 (60.0 %)
                14 (4.0 %)      15 (7.7 %)      16 (8.0 %)      17 (12.0 %)
                18 (11.1 %)     19 (29.2 %)     20 (8.0 %)      22 (8.0 %)
                23 (44.0 %)     
        Other   
Reading link:  /usr/local/packages/cadence_2017/spectre161/tools.lnx86/spectre/etc/ahdl/discipline.h
Reading file:  /misc/linuxws/packages/cadence_2017/spectre161/tools.lnx86/spectre/etc/ahdl/disciplines.vams
Reading link:  /usr/local/packages/cadence_2017/spectre161/tools.lnx86/spectre/etc/ahdl/constants.h
Reading file:  /misc/linuxws/packages/cadence_2017/spectre161/tools.lnx86/spectre/etc/ahdl/constants.vams
Time for Elaboration: CPU = 19.996 ms, elapsed = 23.4361 ms.
Time accumulated: CPU = 195.969 ms, elapsed = 280.391 ms.
Peak resident memory used = 51.1 Mbytes.


Time for EDB Visiting: CPU = 1 ms, elapsed = 625.134 us.
Time accumulated: CPU = 196.969 ms, elapsed = 281.138 ms.
Peak resident memory used = 51.7 Mbytes.


Global user options:
             reltol = 0.001
            vabstol = 1e-06
            iabstol = 1e-12
               temp = 27
               gmin = 1e-12
             rforce = 1
           maxnotes = 5
           maxwarns = 5
             digits = 5
               cols = 80
             pivrel = 0.001
           sensfile = ../psf/sens.output
     checklimitdest = psf
               save = allpub
               tnom = 27
             scalem = 1
              scale = 1

Scoped user options:

Circuit inventory:
              nodes 3
              bsim4 1     
            vsource 3     

Analysis and control statement inventory:
                 dc 2     
               info 7     

Output statements:
             .probe 0     
           .measure 0     
               save 1     

Time for parsing: CPU = 3 ms, elapsed = 3.70002 ms.
Time accumulated: CPU = 199.969 ms, elapsed = 284.947 ms.
Peak resident memory used = 52.9 Mbytes.

~~~~~~~~~~~~~~~~~~~~~~
Pre-Simulation Summary
~~~~~~~~~~~~~~~~~~~~~~
~~~~~~~~~~~~~~~~~~~~~~
Entering remote command mode using MPSC service (spectre, ipi, v0.0, spectre10_28288_34, ).

Warning from spectre.
    WARNING (SPECTRE-16707): Only tran supports psfxl format, result of other analyses will be in psfbin format.


******************
DC Analysis `dcOp'
******************

Opening the PSF file ../psf/dcOp.dc ...
Important parameter values:
    reltol = 1e-03
    abstol(V) = 1 uV
    abstol(I) = 1 pA
    temp = 27 C
    tnom = 27 C
    tempeffects = all
    gmindc = 1 pS

Maximum value achieved for any signal of each quantity: 
V: V(net3) = 1.2 V
I: I(Vds:p) = 179.6 uA
Convergence achieved in 2 iterations.
DC simulation time: CPU = 206.967 ms, elapsed = 323.667 ms.
Total time required for dc analysis `dcOp': CPU = 5.998 ms, elapsed = 10.1678 ms.
Time accumulated: CPU = 206.967 ms, elapsed = 325.079 ms.
Peak resident memory used = 54.5 Mbytes.

dcOpInfo: writing operating point information to rawfile.

Opening the PSF file ../psf/dcOpInfo.info ...

***********************************
DC Analysis `dc': Vsweep = (0 -> 1)
***********************************

Opening the PSF file ../psf/dc.dc ...
Important parameter values:
    reltol = 1e-03
    abstol(V) = 1 uV
    abstol(I) = 1 pA
    temp = 27 C
    tnom = 27 C
    tempeffects = all
    gmindc = 1 pS
    dc: Vsweep = 40e-03         (4 %), step = 20e-03          (2 %)
    dc: Vsweep = 60e-03         (6 %), step = 20e-03          (2 %)
    dc: Vsweep = 80e-03         (8 %), step = 20e-03          (2 %)
    dc: Vsweep = 100e-03       (10 %), step = 20e-03          (2 %)
    dc: Vsweep = 120e-03       (12 %), step = 20e-03          (2 %)
    dc: Vsweep = 140e-03       (14 %), step = 20e-03          (2 %)
    dc: Vsweep = 160e-03       (16 %), step = 20e-03          (2 %)
    dc: Vsweep = 180e-03       (18 %), step = 20e-03          (2 %)
    dc: Vsweep = 200e-03       (20 %), step = 20e-03          (2 %)
    dc: Vsweep = 220e-03       (22 %), step = 20e-03          (2 %)
    dc: Vsweep = 240e-03       (24 %), step = 20e-03          (2 %)
    dc: Vsweep = 260e-03       (26 %), step = 20e-03          (2 %)
    dc: Vsweep = 280e-03       (28 %), step = 20e-03          (2 %)
    dc: Vsweep = 300e-03       (30 %), step = 20e-03          (2 %)
    dc: Vsweep = 320e-03       (32 %), step = 20e-03          (2 %)
    dc: Vsweep = 340e-03       (34 %), step = 20e-03          (2 %)
    dc: Vsweep = 360e-03       (36 %), step = 20e-03          (2 %)
    dc: Vsweep = 380e-03       (38 %), step = 20e-03          (2 %)
    dc: Vsweep = 400e-03       (40 %), step = 20e-03          (2 %)
    dc: Vsweep = 420e-03       (42 %), step = 20e-03          (2 %)
    dc: Vsweep = 440e-03       (44 %), step = 20e-03          (2 %)
    dc: Vsweep = 460e-03       (46 %), step = 20e-03          (2 %)
    dc: Vsweep = 480e-03       (48 %), step = 20e-03          (2 %)
    dc: Vsweep = 500e-03       (50 %), step = 20e-03          (2 %)
    dc: Vsweep = 520e-03       (52 %), step = 20e-03          (2 %)
    dc: Vsweep = 540e-03       (54 %), step = 20e-03          (2 %)
    dc: Vsweep = 560e-03       (56 %), step = 20e-03          (2 %)
    dc: Vsweep = 580e-03       (58 %), step = 20e-03          (2 %)
    dc: Vsweep = 600e-03       (60 %), step = 20e-03          (2 %)
    dc: Vsweep = 620e-03       (62 %), step = 20e-03          (2 %)
    dc: Vsweep = 640e-03       (64 %), step = 20e-03          (2 %)
    dc: Vsweep = 660e-03       (66 %), step = 20e-03          (2 %)
    dc: Vsweep = 680e-03       (68 %), step = 20e-03          (2 %)
    dc: Vsweep = 700e-03       (70 %), step = 20e-03          (2 %)
    dc: Vsweep = 720e-03       (72 %), step = 20e-03          (2 %)
    dc: Vsweep = 740e-03       (74 %), step = 20e-03          (2 %)
    dc: Vsweep = 760e-03       (76 %), step = 20e-03          (2 %)
    dc: Vsweep = 780e-03       (78 %), step = 20e-03          (2 %)
    dc: Vsweep = 800e-03       (80 %), step = 20e-03          (2 %)
    dc: Vsweep = 820e-03       (82 %), step = 20e-03          (2 %)
    dc: Vsweep = 840e-03       (84 %), step = 20e-03          (2 %)
    dc: Vsweep = 860e-03       (86 %), step = 20e-03          (2 %)
    dc: Vsweep = 880e-03       (88 %), step = 20e-03          (2 %)
    dc: Vsweep = 900e-03       (90 %), step = 20e-03          (2 %)
    dc: Vsweep = 920e-03       (92 %), step = 20e-03          (2 %)
    dc: Vsweep = 940e-03       (94 %), step = 20e-03          (2 %)
    dc: Vsweep = 960e-03       (96 %), step = 20e-03          (2 %)
    dc: Vsweep = 980e-03       (98 %), step = 20e-03          (2 %)
    dc: Vsweep = 1            (100 %), step = 20e-03          (2 %)

Maximum value achieved for any signal of each quantity: 
V: V(net3) = 1.2 V
I: I(Vds:p) = 179.6 uA
DC simulation time: CPU = 225.964 ms, elapsed = 351.114 ms.
Total time required for dc analysis `dc': CPU = 9.998 ms, elapsed = 13.19 ms.
Time accumulated: CPU = 226.964 ms, elapsed = 353.08 ms.
Peak resident memory used = 55.1 Mbytes.

modelParameter: writing model parameter values to rawfile.

Opening the PSF file ../psf/modelParameter.info ...
element: writing instance parameter values to rawfile.

Opening the PSF file ../psf/element.info ...
outputParameter: writing output parameter values to rawfile.

Opening the PSF file ../psf/outputParameter.info ...
designParamVals: writing netlist parameters to rawfile.

Opening the PSFASCII file ../psf/designParamVals.info ...
primitives: writing primitives to rawfile.

Opening the PSFASCII file ../psf/primitives.info.primitives ...
subckts: writing subcircuits to rawfile.

Opening the PSFASCII file ../psf/subckts.info.subckts ...

Aggregate audit (3:21:31 PM, Sat Feb 17, 2018):
Time used: CPU = 705 ms, elapsed = 16.5 ks (4h 35m 6s), util. = 4.27e-03%.
Time spent in licensing: elapsed = 22.8 ms.
Peak memory used = 61.4 Mbytes.
Simulation started at: 10:46:24 AM, Sat Feb 17, 2018, ended at: 3:21:31 PM, Sat Feb 17, 2018, with elapsed time (wall clock): 16.5 ks (4h 35m 6s).
spectre completes with 0 errors, 1 warning, and 0 notices.
