
Spectre (R) Circuit Simulator
Version 16.1.0.479.isr9 64bit -- 7 Sep 2017
Copyright (C) 1989-2017 Cadence Design Systems, Inc. All rights reserved worldwide. Cadence and Spectre are registered trademarks of Cadence Design Systems, Inc. All others are the property of their respective holders.

Includes RSA BSAFE(R) Cryptographic or Security Protocol Software from RSA Security, Inc.

User: agroszewski   Host: wario   HostID: 6924DDD   PID: 13460
Memory  available: 15.5844 GB  physical: 101.4334 GB
Linux   : CentOS release 6.9 (Final)
CPU Type: Intel(R) Xeon(R) CPU           X5660  @ 2.80GHz
        Socket: Processors [Frequency] (Hyperthreaded Processor)
        0:       0 [2801.0] ( 12 ),  1 [2801.0] ( 13 ),  2 [2801.0] ( 14 )
                 3 [2801.0] ( 15 ),  4 [2801.0] ( 16 ),  5 [1600.0] ( 17 )
        1:       6 [2801.0] ( 18 ),  7 [2801.0] ( 19 ),  8 [2801.0] ( 20 )
                 9 [2801.0] ( 21 ), 10 [2801.0] ( 22 ), 11 [2801.0] ( 23 )
        
System load averages (1min, 5min, 15min) : 857.8 %, 855.7 %, 857.5 %
Hyperthreading is enabled


Simulating `input.scs' on wario at 9:20:03 PM, Thur Mar 8, 2018 (process id: 13460).
Current working directory: /home/ecelrc/students/agroszewski/simulation/single_inv_sim/spectre/schematic/netlist
Command line:
    /usr/local/packages/cadence_2017/spectre161/tools.lnx86/bin/spectre  \
        -64 input.scs +escchars +log ../psf/spectre.out +inter=mpsc  \
        +mpssession=spectre1_13907_43 -format psfxl -raw ../psf  \
        +lqtimeout 900 -maxw 5 -maxn 5
spectre pid = 13460

Loading /usr/local/packages/cadence_2017/spectre161/tools.lnx86/cmi/lib/64bit/5.0/libinfineon_sh.so ...
Loading /usr/local/packages/cadence_2017/spectre161/tools.lnx86/cmi/lib/64bit/5.0/libphilips_o_sh.so ...
Loading /usr/local/packages/cadence_2017/spectre161/tools.lnx86/cmi/lib/64bit/5.0/libphilips_sh.so ...
Loading /usr/local/packages/cadence_2017/spectre161/tools.lnx86/cmi/lib/64bit/5.0/libsparam_sh.so ...
Loading /usr/local/packages/cadence_2017/spectre161/tools.lnx86/cmi/lib/64bit/5.0/libstmodels_sh.so ...
Reading file:  /home/ecelrc/students/agroszewski/simulation/single_inv_sim/spectre/schematic/netlist/input.scs
Reading link:  /usr/local/packages
Reading file:  /misc/linuxws/packages/cadence_2017/spectre161/tools.lnx86/spectre/etc/configs/mapsubckt.cfg
Reading file:  /misc/linuxws/packages/cadence_2017/spectre161/tools.lnx86/spectre/etc/configs/spectre.cfg
Reading file:  /misc/scratch/ajgrosze/lpr/schematics/models/32nm_LP.pm
Time for NDB Parsing: CPU = 192.971 ms, elapsed = 359.459 ms.
Time accumulated: CPU = 240.962 ms, elapsed = 359.468 ms.
Peak resident memory used = 44.7 Mbytes.


The CPU load for active processors is :
        Spectre  0 (100.0 %)     1 (100.0 %)     2 (52.8 %)      3 (100.0 %)
                 4 (100.0 %)     5 (54.3 %)      6 (100.0 %)     7 (100.0 %)
                 8 (61.1 %)      9 (100.0 %)    10 (100.0 %)    11 (100.0 %)
                12 (100.0 %)    13 (44.4 %)     14 (100.0 %)    15 (100.0 %)
                16 (100.0 %)    17 (100.0 %)    18 (44.1 %)     19 (100.0 %)
                20 (100.0 %)    21 (43.2 %)     22 (100.0 %)    23 (100.0 %)
        Other   
Reading link:  /usr/local/packages/cadence_2017/spectre161/tools.lnx86/spectre/etc/ahdl/discipline.h
Reading file:  /misc/linuxws/packages/cadence_2017/spectre161/tools.lnx86/spectre/etc/ahdl/disciplines.vams
Reading link:  /usr/local/packages/cadence_2017/spectre161/tools.lnx86/spectre/etc/ahdl/constants.h
Reading file:  /misc/linuxws/packages/cadence_2017/spectre161/tools.lnx86/spectre/etc/ahdl/constants.vams
Time for Elaboration: CPU = 35.995 ms, elapsed = 109.149 ms.
Time accumulated: CPU = 277.957 ms, elapsed = 468.858 ms.
Peak resident memory used = 51.2 Mbytes.


Time for EDB Visiting: CPU = 1 ms, elapsed = 1.25694 ms.
Time accumulated: CPU = 278.957 ms, elapsed = 470.365 ms.
Peak resident memory used = 51.8 Mbytes.


Global user options:
             reltol = 0.001
            vabstol = 1e-06
            iabstol = 1e-12
               temp = 27
               gmin = 1e-12
             rforce = 1
           maxnotes = 5
           maxwarns = 5
             digits = 5
               cols = 80
             pivrel = 0.001
           sensfile = ../psf/sens.output
     checklimitdest = psf
               save = allpub
               tnom = 27
             scalem = 1
              scale = 1

Scoped user options:

Circuit inventory:
              nodes 3
             iprobe 3     
              bsim4 2     
            vsource 2     

Analysis and control statement inventory:
                 dc 2     
               info 7     

Output statements:
             .probe 0     
           .measure 0     
               save 1     

Time for parsing: CPU = 5.998 ms, elapsed = 6.26111 ms.
Time accumulated: CPU = 284.955 ms, elapsed = 476.837 ms.
Peak resident memory used = 53.2 Mbytes.

~~~~~~~~~~~~~~~~~~~~~~
Pre-Simulation Summary
~~~~~~~~~~~~~~~~~~~~~~
~~~~~~~~~~~~~~~~~~~~~~
Entering remote command mode using MPSC service (spectre, ipi, v0.0, spectre1_13907_43, ).

Warning from spectre.
    WARNING (SPECTRE-16707): Only tran supports psfxl format, result of other analyses will be in psfbin format.


******************
DC Analysis `dcOp'
******************

Opening the PSF file ../psf/dcOp.dc ...
Important parameter values:
    reltol = 1e-03
    abstol(V) = 1 uV
    abstol(I) = 1 pA
    temp = 27 C
    tnom = 27 C
    tempeffects = all
    gmindc = 1 pS

Maximum value achieved for any signal of each quantity: 
V: V(net3) = 1.2 V
I: I(I0:3) = 98.46 pA
Convergence achieved in 6 iterations.
DC simulation time: CPU = 291.955 ms, elapsed = 554.885 ms.
Total time required for dc analysis `dcOp': CPU = 5 ms, elapsed = 8.58808 ms.
Time accumulated: CPU = 291.955 ms, elapsed = 556.129 ms.
Peak resident memory used = 54.7 Mbytes.

dcOpInfo: writing operating point information to rawfile.

Opening the PSF file ../psf/dcOpInfo.info ...

**********************************
DC Analysis `dc': vdc = (0 -> 1.2)
**********************************

Opening the PSF file ../psf/dc.dc ...
Important parameter values:
    reltol = 1e-03
    abstol(V) = 1 uV
    abstol(I) = 1 pA
    temp = 27 C
    tnom = 27 C
    tempeffects = all
    gmindc = 1 pS

Notice from spectre at vdc = 10e-03 during DC analysis `dc'.
    GminDC = 1 pS is large enough to noticeably affect the DC solution.
        dV(vout) = -98.317 uV
        Use the `gmin_check' option to eliminate or expand this report.
Notice from spectre at vdc = 20e-03 during DC analysis `dc'.
    GminDC = 1 pS is large enough to noticeably affect the DC solution.
        dV(vout) = -360.447 uV
        Use the `gmin_check' option to eliminate or expand this report.
Notice from spectre at vdc = 30e-03 during DC analysis `dc'.
    GminDC = 1 pS is large enough to noticeably affect the DC solution.
        dV(vout) = -745.893 uV
        Use the `gmin_check' option to eliminate or expand this report.

    dc: vdc = 30e-03       (2.5 %), step = 10e-03       (833 m%)

Notice from spectre at vdc = 40e-03 during DC analysis `dc'.
    GminDC = 1 pS is large enough to noticeably affect the DC solution.
        dV(vout) = -1.15153 mV
        Use the `gmin_check' option to eliminate or expand this report.

    dc: vdc = 40e-03      (3.33 %), step = 10e-03       (833 m%)

Notice from spectre at vdc = 50e-03 during DC analysis `dc'.
    GminDC = 1 pS is large enough to noticeably affect the DC solution.
        Further occurrences of this notice will be suppressed.
        dV(vout) = -1.4505 mV
        Further occurrences of this notice will be suppressed.
        Use the `gmin_check' option to eliminate or expand this report.
        Further occurrences of this notice will be suppressed.

    dc: vdc = 50e-03      (4.17 %), step = 10e-03       (833 m%)
    dc: vdc = 60e-03         (5 %), step = 10e-03       (833 m%)
    dc: vdc = 70e-03      (5.83 %), step = 10e-03       (833 m%)
    dc: vdc = 80e-03      (6.67 %), step = 10e-03       (833 m%)
    dc: vdc = 90e-03       (7.5 %), step = 10e-03       (833 m%)
    dc: vdc = 100e-03     (8.33 %), step = 10e-03       (833 m%)
    dc: vdc = 110e-03     (9.17 %), step = 10e-03       (833 m%)
    dc: vdc = 120e-03       (10 %), step = 10e-03       (833 m%)
    dc: vdc = 130e-03     (10.8 %), step = 10e-03       (833 m%)
    dc: vdc = 140e-03     (11.7 %), step = 10e-03       (833 m%)
    dc: vdc = 150e-03     (12.5 %), step = 10e-03       (833 m%)
    dc: vdc = 160e-03     (13.3 %), step = 10e-03       (833 m%)
    dc: vdc = 170e-03     (14.2 %), step = 10e-03       (833 m%)
    dc: vdc = 180e-03       (15 %), step = 10e-03       (833 m%)
    dc: vdc = 190e-03     (15.8 %), step = 10e-03       (833 m%)
    dc: vdc = 200e-03     (16.7 %), step = 10e-03       (833 m%)
    dc: vdc = 210e-03     (17.5 %), step = 10e-03       (833 m%)
    dc: vdc = 220e-03     (18.3 %), step = 10e-03       (833 m%)
    dc: vdc = 230e-03     (19.2 %), step = 10e-03       (833 m%)
    dc: vdc = 240e-03       (20 %), step = 10e-03       (833 m%)
    dc: vdc = 250e-03     (20.8 %), step = 10e-03       (833 m%)
    dc: vdc = 260e-03     (21.7 %), step = 10e-03       (833 m%)
    dc: vdc = 270e-03     (22.5 %), step = 10e-03       (833 m%)
    dc: vdc = 280e-03     (23.3 %), step = 10e-03       (833 m%)
    dc: vdc = 290e-03     (24.2 %), step = 10e-03       (833 m%)
    dc: vdc = 300e-03       (25 %), step = 10e-03       (833 m%)
    dc: vdc = 310e-03     (25.8 %), step = 10e-03       (833 m%)
    dc: vdc = 320e-03     (26.7 %), step = 10e-03       (833 m%)
    dc: vdc = 330e-03     (27.5 %), step = 10e-03       (833 m%)
    dc: vdc = 340e-03     (28.3 %), step = 10e-03       (833 m%)
    dc: vdc = 350e-03     (29.2 %), step = 10e-03       (833 m%)
    dc: vdc = 360e-03       (30 %), step = 10e-03       (833 m%)
    dc: vdc = 370e-03     (30.8 %), step = 10e-03       (833 m%)
    dc: vdc = 380e-03     (31.7 %), step = 10e-03       (833 m%)
    dc: vdc = 390e-03     (32.5 %), step = 10e-03       (833 m%)
    dc: vdc = 400e-03     (33.3 %), step = 10e-03       (833 m%)
    dc: vdc = 410e-03     (34.2 %), step = 10e-03       (833 m%)
    dc: vdc = 420e-03       (35 %), step = 10e-03       (833 m%)
    dc: vdc = 430e-03     (35.8 %), step = 10e-03       (833 m%)
    dc: vdc = 440e-03     (36.7 %), step = 10e-03       (833 m%)
    dc: vdc = 450e-03     (37.5 %), step = 10e-03       (833 m%)
    dc: vdc = 460e-03     (38.3 %), step = 10e-03       (833 m%)
    dc: vdc = 470e-03     (39.2 %), step = 10e-03       (833 m%)
    dc: vdc = 480e-03       (40 %), step = 10e-03       (833 m%)
    dc: vdc = 490e-03     (40.8 %), step = 10e-03       (833 m%)
    dc: vdc = 500e-03     (41.7 %), step = 10e-03       (833 m%)
    dc: vdc = 510e-03     (42.5 %), step = 10e-03       (833 m%)
    dc: vdc = 520e-03     (43.3 %), step = 10e-03       (833 m%)
    dc: vdc = 530e-03     (44.2 %), step = 10e-03       (833 m%)
    dc: vdc = 540e-03       (45 %), step = 10e-03       (833 m%)
    dc: vdc = 550e-03     (45.8 %), step = 10e-03       (833 m%)
    dc: vdc = 560e-03     (46.7 %), step = 10e-03       (833 m%)
    dc: vdc = 570e-03     (47.5 %), step = 10e-03       (833 m%)
    dc: vdc = 580e-03     (48.3 %), step = 10e-03       (833 m%)
    dc: vdc = 590e-03     (49.2 %), step = 10e-03       (833 m%)
    dc: vdc = 600e-03       (50 %), step = 10e-03       (833 m%)
    dc: vdc = 610e-03     (50.8 %), step = 10e-03       (833 m%)
    dc: vdc = 620e-03     (51.7 %), step = 10e-03       (833 m%)
    dc: vdc = 630e-03     (52.5 %), step = 10e-03       (833 m%)
    dc: vdc = 640e-03     (53.3 %), step = 10e-03       (833 m%)
    dc: vdc = 650e-03     (54.2 %), step = 10e-03       (833 m%)
    dc: vdc = 660e-03       (55 %), step = 10e-03       (833 m%)
    dc: vdc = 670e-03     (55.8 %), step = 10e-03       (833 m%)
    dc: vdc = 680e-03     (56.7 %), step = 10e-03       (833 m%)
    dc: vdc = 690e-03     (57.5 %), step = 10e-03       (833 m%)
    dc: vdc = 700e-03     (58.3 %), step = 10e-03       (833 m%)
    dc: vdc = 710e-03     (59.2 %), step = 10e-03       (833 m%)
    dc: vdc = 720e-03       (60 %), step = 10e-03       (833 m%)
    dc: vdc = 730e-03     (60.8 %), step = 10e-03       (833 m%)
    dc: vdc = 740e-03     (61.7 %), step = 10e-03       (833 m%)
    dc: vdc = 750e-03     (62.5 %), step = 10e-03       (833 m%)
    dc: vdc = 760e-03     (63.3 %), step = 10e-03       (833 m%)
    dc: vdc = 770e-03     (64.2 %), step = 10e-03       (833 m%)
    dc: vdc = 780e-03       (65 %), step = 10e-03       (833 m%)
    dc: vdc = 790e-03     (65.8 %), step = 10e-03       (833 m%)
    dc: vdc = 800e-03     (66.7 %), step = 10e-03       (833 m%)
    dc: vdc = 810e-03     (67.5 %), step = 10e-03       (833 m%)
    dc: vdc = 820e-03     (68.3 %), step = 10e-03       (833 m%)
    dc: vdc = 830e-03     (69.2 %), step = 10e-03       (833 m%)
    dc: vdc = 840e-03       (70 %), step = 10e-03       (833 m%)
    dc: vdc = 850e-03     (70.8 %), step = 10e-03       (833 m%)
    dc: vdc = 860e-03     (71.7 %), step = 10e-03       (833 m%)
    dc: vdc = 870e-03     (72.5 %), step = 10e-03       (833 m%)
    dc: vdc = 880e-03     (73.3 %), step = 10e-03       (833 m%)
    dc: vdc = 890e-03     (74.2 %), step = 10e-03       (833 m%)
    dc: vdc = 900e-03       (75 %), step = 10e-03       (833 m%)
    dc: vdc = 910e-03     (75.8 %), step = 10e-03       (833 m%)
    dc: vdc = 920e-03     (76.7 %), step = 10e-03       (833 m%)
    dc: vdc = 930e-03     (77.5 %), step = 10e-03       (833 m%)
    dc: vdc = 940e-03     (78.3 %), step = 10e-03       (833 m%)
    dc: vdc = 950e-03     (79.2 %), step = 10e-03       (833 m%)
    dc: vdc = 960e-03       (80 %), step = 10e-03       (833 m%)
    dc: vdc = 970e-03     (80.8 %), step = 10e-03       (833 m%)
    dc: vdc = 980e-03     (81.7 %), step = 10e-03       (833 m%)
    dc: vdc = 990e-03     (82.5 %), step = 10e-03       (833 m%)
    dc: vdc = 1           (83.3 %), step = 10e-03       (833 m%)
    dc: vdc = 1.01        (84.2 %), step = 10e-03       (833 m%)
    dc: vdc = 1.02          (85 %), step = 10e-03       (833 m%)
    dc: vdc = 1.03        (85.8 %), step = 10e-03       (833 m%)
    dc: vdc = 1.04        (86.7 %), step = 10e-03       (833 m%)
    dc: vdc = 1.05        (87.5 %), step = 10e-03       (833 m%)
    dc: vdc = 1.06        (88.3 %), step = 10e-03       (833 m%)
    dc: vdc = 1.07        (89.2 %), step = 10e-03       (833 m%)
    dc: vdc = 1.08          (90 %), step = 10e-03       (833 m%)
    dc: vdc = 1.09        (90.8 %), step = 10e-03       (833 m%)
    dc: vdc = 1.1         (91.7 %), step = 10e-03       (833 m%)
    dc: vdc = 1.11        (92.5 %), step = 10e-03       (833 m%)
    dc: vdc = 1.12        (93.3 %), step = 10e-03       (833 m%)
    dc: vdc = 1.13        (94.2 %), step = 10e-03       (833 m%)
    dc: vdc = 1.14          (95 %), step = 10e-03       (833 m%)
    dc: vdc = 1.15        (95.8 %), step = 10e-03       (833 m%)
    dc: vdc = 1.16        (96.7 %), step = 10e-03       (833 m%)
    dc: vdc = 1.17        (97.5 %), step = 10e-03       (833 m%)
    dc: vdc = 1.18        (98.3 %), step = 10e-03       (833 m%)
    dc: vdc = 1.19        (99.2 %), step = 10e-03       (833 m%)
    dc: vdc = 1.2          (100 %), step = 10e-03       (833 m%)

Maximum value achieved for any signal of each quantity: 
V: V(net3) = 1.2 V
I: I(I0:3) = 98.46 pA
DC simulation time: CPU = 333.949 ms, elapsed = 605.389 ms.
Total time required for dc analysis `dc': CPU = 33.996 ms, elapsed = 37.6129 ms.
Time accumulated: CPU = 334.948 ms, elapsed = 608.403 ms.
Peak resident memory used = 55.3 Mbytes.


Notice from spectre.
    14 notices suppressed.

modelParameter: writing model parameter values to rawfile.

Opening the PSF file ../psf/modelParameter.info ...
element: writing instance parameter values to rawfile.

Opening the PSF file ../psf/element.info ...
outputParameter: writing output parameter values to rawfile.

Opening the PSF file ../psf/outputParameter.info ...
designParamVals: writing netlist parameters to rawfile.

Opening the PSFASCII file ../psf/designParamVals.info ...
primitives: writing primitives to rawfile.

Opening the PSFASCII file ../psf/primitives.info.primitives ...
subckts: writing subcircuits to rawfile.

Opening the PSFASCII file ../psf/subckts.info.subckts ...

Warning from spectre.
    WARNING (SPECTRE-16707): Only tran supports psfxl format, result of other analyses will be in psfbin format.


******************
DC Analysis `dcOp'
******************

Opening the PSF file ../psf/dcOp.dc ...
Important parameter values:
    reltol = 1e-03
    abstol(V) = 1 uV
    abstol(I) = 1 pA
    temp = 27 C
    tnom = 27 C
    tempeffects = all
    gmindc = 1 pS

Maximum value achieved for any signal of each quantity: 
V: V(net3) = 1.2 V
I: I(I0:3) = 98.46 pA
Convergence achieved in 6 iterations.
DC simulation time: CPU = 444.931 ms, elapsed = 1.91626 ks.
Total time required for dc analysis `dcOp': CPU = 3.999 ms, elapsed = 7.9608 ms.
Time accumulated: CPU = 444.931 ms, elapsed = 1.91626 ks (31m  56.3s).
Peak resident memory used = 56 Mbytes.

dcOpInfo: writing operating point information to rawfile.

Opening the PSF file ../psf/dcOpInfo.info ...

**********************************
DC Analysis `dc': vdc = (0 -> 1.2)
**********************************

Opening the PSF file ../psf/dc.dc ...
Important parameter values:
    reltol = 1e-03
    abstol(V) = 1 uV
    abstol(I) = 1 pA
    temp = 27 C
    tnom = 27 C
    tempeffects = all
    gmindc = 1 pS

Notice from spectre at vdc = 10e-03 during DC analysis `dc'.
    GminDC = 1 pS is large enough to noticeably affect the DC solution.
        dV(vout) = -98.317 uV
        Use the `gmin_check' option to eliminate or expand this report.
Notice from spectre at vdc = 20e-03 during DC analysis `dc'.
    GminDC = 1 pS is large enough to noticeably affect the DC solution.
        dV(vout) = -360.447 uV
        Use the `gmin_check' option to eliminate or expand this report.
Notice from spectre at vdc = 30e-03 during DC analysis `dc'.
    GminDC = 1 pS is large enough to noticeably affect the DC solution.
        dV(vout) = -745.893 uV
        Use the `gmin_check' option to eliminate or expand this report.

    dc: vdc = 30e-03       (2.5 %), step = 10e-03       (833 m%)

Notice from spectre at vdc = 40e-03 during DC analysis `dc'.
    GminDC = 1 pS is large enough to noticeably affect the DC solution.
        dV(vout) = -1.15153 mV
        Use the `gmin_check' option to eliminate or expand this report.

    dc: vdc = 40e-03      (3.33 %), step = 10e-03       (833 m%)

Notice from spectre at vdc = 50e-03 during DC analysis `dc'.
    GminDC = 1 pS is large enough to noticeably affect the DC solution.
        Further occurrences of this notice will be suppressed.
        dV(vout) = -1.4505 mV
        Further occurrences of this notice will be suppressed.
        Use the `gmin_check' option to eliminate or expand this report.
        Further occurrences of this notice will be suppressed.

    dc: vdc = 50e-03      (4.17 %), step = 10e-03       (833 m%)
    dc: vdc = 60e-03         (5 %), step = 10e-03       (833 m%)
    dc: vdc = 70e-03      (5.83 %), step = 10e-03       (833 m%)
    dc: vdc = 80e-03      (6.67 %), step = 10e-03       (833 m%)
    dc: vdc = 90e-03       (7.5 %), step = 10e-03       (833 m%)
    dc: vdc = 100e-03     (8.33 %), step = 10e-03       (833 m%)
    dc: vdc = 110e-03     (9.17 %), step = 10e-03       (833 m%)
    dc: vdc = 120e-03       (10 %), step = 10e-03       (833 m%)
    dc: vdc = 130e-03     (10.8 %), step = 10e-03       (833 m%)
    dc: vdc = 140e-03     (11.7 %), step = 10e-03       (833 m%)
    dc: vdc = 150e-03     (12.5 %), step = 10e-03       (833 m%)
    dc: vdc = 160e-03     (13.3 %), step = 10e-03       (833 m%)
    dc: vdc = 170e-03     (14.2 %), step = 10e-03       (833 m%)
    dc: vdc = 180e-03       (15 %), step = 10e-03       (833 m%)
    dc: vdc = 190e-03     (15.8 %), step = 10e-03       (833 m%)
    dc: vdc = 200e-03     (16.7 %), step = 10e-03       (833 m%)
    dc: vdc = 210e-03     (17.5 %), step = 10e-03       (833 m%)
    dc: vdc = 220e-03     (18.3 %), step = 10e-03       (833 m%)
    dc: vdc = 230e-03     (19.2 %), step = 10e-03       (833 m%)
    dc: vdc = 240e-03       (20 %), step = 10e-03       (833 m%)
    dc: vdc = 250e-03     (20.8 %), step = 10e-03       (833 m%)
    dc: vdc = 260e-03     (21.7 %), step = 10e-03       (833 m%)
    dc: vdc = 270e-03     (22.5 %), step = 10e-03       (833 m%)
    dc: vdc = 280e-03     (23.3 %), step = 10e-03       (833 m%)
    dc: vdc = 290e-03     (24.2 %), step = 10e-03       (833 m%)
    dc: vdc = 300e-03       (25 %), step = 10e-03       (833 m%)
    dc: vdc = 310e-03     (25.8 %), step = 10e-03       (833 m%)
    dc: vdc = 320e-03     (26.7 %), step = 10e-03       (833 m%)
    dc: vdc = 330e-03     (27.5 %), step = 10e-03       (833 m%)
    dc: vdc = 340e-03     (28.3 %), step = 10e-03       (833 m%)
    dc: vdc = 350e-03     (29.2 %), step = 10e-03       (833 m%)
    dc: vdc = 360e-03       (30 %), step = 10e-03       (833 m%)
    dc: vdc = 370e-03     (30.8 %), step = 10e-03       (833 m%)
    dc: vdc = 380e-03     (31.7 %), step = 10e-03       (833 m%)
    dc: vdc = 390e-03     (32.5 %), step = 10e-03       (833 m%)
    dc: vdc = 400e-03     (33.3 %), step = 10e-03       (833 m%)
    dc: vdc = 410e-03     (34.2 %), step = 10e-03       (833 m%)
    dc: vdc = 420e-03       (35 %), step = 10e-03       (833 m%)
    dc: vdc = 430e-03     (35.8 %), step = 10e-03       (833 m%)
    dc: vdc = 440e-03     (36.7 %), step = 10e-03       (833 m%)
    dc: vdc = 450e-03     (37.5 %), step = 10e-03       (833 m%)
    dc: vdc = 460e-03     (38.3 %), step = 10e-03       (833 m%)
    dc: vdc = 470e-03     (39.2 %), step = 10e-03       (833 m%)
    dc: vdc = 480e-03       (40 %), step = 10e-03       (833 m%)
    dc: vdc = 490e-03     (40.8 %), step = 10e-03       (833 m%)
    dc: vdc = 500e-03     (41.7 %), step = 10e-03       (833 m%)
    dc: vdc = 510e-03     (42.5 %), step = 10e-03       (833 m%)
    dc: vdc = 520e-03     (43.3 %), step = 10e-03       (833 m%)
    dc: vdc = 530e-03     (44.2 %), step = 10e-03       (833 m%)
    dc: vdc = 540e-03       (45 %), step = 10e-03       (833 m%)
    dc: vdc = 550e-03     (45.8 %), step = 10e-03       (833 m%)
    dc: vdc = 560e-03     (46.7 %), step = 10e-03       (833 m%)
    dc: vdc = 570e-03     (47.5 %), step = 10e-03       (833 m%)
    dc: vdc = 580e-03     (48.3 %), step = 10e-03       (833 m%)
    dc: vdc = 590e-03     (49.2 %), step = 10e-03       (833 m%)
    dc: vdc = 600e-03       (50 %), step = 10e-03       (833 m%)
    dc: vdc = 610e-03     (50.8 %), step = 10e-03       (833 m%)
    dc: vdc = 620e-03     (51.7 %), step = 10e-03       (833 m%)
    dc: vdc = 630e-03     (52.5 %), step = 10e-03       (833 m%)
    dc: vdc = 640e-03     (53.3 %), step = 10e-03       (833 m%)
    dc: vdc = 650e-03     (54.2 %), step = 10e-03       (833 m%)
    dc: vdc = 660e-03       (55 %), step = 10e-03       (833 m%)
    dc: vdc = 670e-03     (55.8 %), step = 10e-03       (833 m%)
    dc: vdc = 680e-03     (56.7 %), step = 10e-03       (833 m%)
    dc: vdc = 690e-03     (57.5 %), step = 10e-03       (833 m%)
    dc: vdc = 700e-03     (58.3 %), step = 10e-03       (833 m%)
    dc: vdc = 710e-03     (59.2 %), step = 10e-03       (833 m%)
    dc: vdc = 720e-03       (60 %), step = 10e-03       (833 m%)
    dc: vdc = 730e-03     (60.8 %), step = 10e-03       (833 m%)
    dc: vdc = 740e-03     (61.7 %), step = 10e-03       (833 m%)
    dc: vdc = 750e-03     (62.5 %), step = 10e-03       (833 m%)
    dc: vdc = 760e-03     (63.3 %), step = 10e-03       (833 m%)
    dc: vdc = 770e-03     (64.2 %), step = 10e-03       (833 m%)
    dc: vdc = 780e-03       (65 %), step = 10e-03       (833 m%)
    dc: vdc = 790e-03     (65.8 %), step = 10e-03       (833 m%)
    dc: vdc = 800e-03     (66.7 %), step = 10e-03       (833 m%)
    dc: vdc = 810e-03     (67.5 %), step = 10e-03       (833 m%)
    dc: vdc = 820e-03     (68.3 %), step = 10e-03       (833 m%)
    dc: vdc = 830e-03     (69.2 %), step = 10e-03       (833 m%)
    dc: vdc = 840e-03       (70 %), step = 10e-03       (833 m%)
    dc: vdc = 850e-03     (70.8 %), step = 10e-03       (833 m%)
    dc: vdc = 860e-03     (71.7 %), step = 10e-03       (833 m%)
    dc: vdc = 870e-03     (72.5 %), step = 10e-03       (833 m%)
    dc: vdc = 880e-03     (73.3 %), step = 10e-03       (833 m%)
    dc: vdc = 890e-03     (74.2 %), step = 10e-03       (833 m%)
    dc: vdc = 900e-03       (75 %), step = 10e-03       (833 m%)
    dc: vdc = 910e-03     (75.8 %), step = 10e-03       (833 m%)
    dc: vdc = 920e-03     (76.7 %), step = 10e-03       (833 m%)
    dc: vdc = 930e-03     (77.5 %), step = 10e-03       (833 m%)
    dc: vdc = 940e-03     (78.3 %), step = 10e-03       (833 m%)
    dc: vdc = 950e-03     (79.2 %), step = 10e-03       (833 m%)
    dc: vdc = 960e-03       (80 %), step = 10e-03       (833 m%)
    dc: vdc = 970e-03     (80.8 %), step = 10e-03       (833 m%)
    dc: vdc = 980e-03     (81.7 %), step = 10e-03       (833 m%)
    dc: vdc = 990e-03     (82.5 %), step = 10e-03       (833 m%)
    dc: vdc = 1           (83.3 %), step = 10e-03       (833 m%)
    dc: vdc = 1.01        (84.2 %), step = 10e-03       (833 m%)
    dc: vdc = 1.02          (85 %), step = 10e-03       (833 m%)
    dc: vdc = 1.03        (85.8 %), step = 10e-03       (833 m%)
    dc: vdc = 1.04        (86.7 %), step = 10e-03       (833 m%)
    dc: vdc = 1.05        (87.5 %), step = 10e-03       (833 m%)
    dc: vdc = 1.06        (88.3 %), step = 10e-03       (833 m%)
    dc: vdc = 1.07        (89.2 %), step = 10e-03       (833 m%)
    dc: vdc = 1.08          (90 %), step = 10e-03       (833 m%)
    dc: vdc = 1.09        (90.8 %), step = 10e-03       (833 m%)
    dc: vdc = 1.1         (91.7 %), step = 10e-03       (833 m%)
    dc: vdc = 1.11        (92.5 %), step = 10e-03       (833 m%)
    dc: vdc = 1.12        (93.3 %), step = 10e-03       (833 m%)
    dc: vdc = 1.13        (94.2 %), step = 10e-03       (833 m%)
    dc: vdc = 1.14          (95 %), step = 10e-03       (833 m%)
    dc: vdc = 1.15        (95.8 %), step = 10e-03       (833 m%)
    dc: vdc = 1.16        (96.7 %), step = 10e-03       (833 m%)
    dc: vdc = 1.17        (97.5 %), step = 10e-03       (833 m%)
    dc: vdc = 1.18        (98.3 %), step = 10e-03       (833 m%)
    dc: vdc = 1.19        (99.2 %), step = 10e-03       (833 m%)
    dc: vdc = 1.2          (100 %), step = 10e-03       (833 m%)

Maximum value achieved for any signal of each quantity: 
V: V(net3) = 1.2 V
I: I(I0:3) = 98.46 pA
DC simulation time: CPU = 485.925 ms, elapsed = 1.91631 ks.
Total time required for dc analysis `dc': CPU = 33.995 ms, elapsed = 36.2389 ms.
Time accumulated: CPU = 485.925 ms, elapsed = 1.91631 ks (31m  56.3s).
Peak resident memory used = 56.2 Mbytes.


Notice from spectre.
    14 notices suppressed.

modelParameter: writing model parameter values to rawfile.

Opening the PSF file ../psf/modelParameter.info ...
element: writing instance parameter values to rawfile.

Opening the PSF file ../psf/element.info ...
outputParameter: writing output parameter values to rawfile.

Opening the PSF file ../psf/outputParameter.info ...
designParamVals: writing netlist parameters to rawfile.

Opening the PSFASCII file ../psf/designParamVals.info ...
primitives: writing primitives to rawfile.

Opening the PSFASCII file ../psf/primitives.info.primitives ...
subckts: writing subcircuits to rawfile.

Opening the PSFASCII file ../psf/subckts.info.subckts ...

Aggregate audit (10:58:43 PM, Thur Mar 8, 2018):
Time used: CPU = 644 ms, elapsed = 5.92 ks (1h 38m 40s), util. = 10.9e-03%.
Time spent in licensing: elapsed = 22.5 ms.
Peak memory used = 56.9 Mbytes.
Simulation started at: 9:20:03 PM, Thur Mar 8, 2018, ended at: 10:58:43 PM, Thur Mar 8, 2018, with elapsed time (wall clock): 5.92 ks (1h 38m 40s).
spectre completes with 0 errors, 2 warnings, and 12 notices.
