
Spectre (R) Circuit Simulator
Version 16.1.0.479.isr9 64bit -- 7 Sep 2017
Copyright (C) 1989-2017 Cadence Design Systems, Inc. All rights reserved worldwide. Cadence and Spectre are registered trademarks of Cadence Design Systems, Inc. All others are the property of their respective holders.

Includes RSA BSAFE(R) Cryptographic or Security Protocol Software from RSA Security, Inc.

User: agroszewski   Host: wario   HostID: 6924DDD   PID: 703
Memory  available: 13.2814 GB  physical: 101.4334 GB
Linux   : CentOS release 6.9 (Final)
CPU Type: Intel(R) Xeon(R) CPU           X5660  @ 2.80GHz
        Socket: Processors [Frequency] (Hyperthreaded Processor)
        0:       0 [1600.0] ( 12 ),  1 [1600.0] ( 13 ),  2 [1600.0] ( 14 )
                 3 [1600.0] ( 15 ),  4 [1600.0] ( 16 ),  5 [1600.0] ( 17 )
        1:       6 [2801.0] ( 18 ),  7 [1600.0] ( 19 ),  8 [1600.0] ( 20 )
                 9 [1600.0] ( 21 ), 10 [1600.0] ( 22 ), 11 [1600.0] ( 23 )
        
System load averages (1min, 5min, 15min) : 779.9 %, 779.5 %, 780.7 %
Hyperthreading is enabled


Simulating `input.scs' on wario at 6:50:52 PM, Thur Mar 8, 2018 (process id: 703).
Current working directory: /home/ecelrc/students/agroszewski/simulation/inv_chain/spectre/schematic/netlist
Command line:
    /usr/local/packages/cadence_2017/spectre161/tools.lnx86/bin/spectre  \
        -64 input.scs +escchars +log ../psf/spectre.out +inter=mpsc  \
        +mpssession=spectre0_13907_32 -format psfxl -raw ../psf  \
        +lqtimeout 900 -maxw 5 -maxn 5
spectre pid = 703

Loading /usr/local/packages/cadence_2017/spectre161/tools.lnx86/cmi/lib/64bit/5.0/libinfineon_sh.so ...
Loading /usr/local/packages/cadence_2017/spectre161/tools.lnx86/cmi/lib/64bit/5.0/libphilips_o_sh.so ...
Loading /usr/local/packages/cadence_2017/spectre161/tools.lnx86/cmi/lib/64bit/5.0/libphilips_sh.so ...
Loading /usr/local/packages/cadence_2017/spectre161/tools.lnx86/cmi/lib/64bit/5.0/libsparam_sh.so ...
Loading /usr/local/packages/cadence_2017/spectre161/tools.lnx86/cmi/lib/64bit/5.0/libstmodels_sh.so ...
Reading file:  /home/ecelrc/students/agroszewski/simulation/inv_chain/spectre/schematic/netlist/input.scs
Reading link:  /usr/local/packages
Reading file:  /misc/linuxws/packages/cadence_2017/spectre161/tools.lnx86/spectre/etc/configs/mapsubckt.cfg
Reading file:  /misc/linuxws/packages/cadence_2017/spectre161/tools.lnx86/spectre/etc/configs/spectre.cfg
Reading file:  /misc/scratch/ajgrosze/lpr/schematics/models/32nm_LP.pm
Time for NDB Parsing: CPU = 117.982 ms, elapsed = 225.713 ms.
Time accumulated: CPU = 146.976 ms, elapsed = 225.718 ms.
Peak resident memory used = 46.6 Mbytes.


The CPU load for active processors is :
        Spectre  0 (31.8 %)      1 (31.8 %)      2 (13.0 %)      3 (9.1 %)
                 4 (9.1 %)       6 (81.8 %)      7 (28.6 %)      8 (19.0 %)
                10 (4.5 %)      12 (27.3 %)     13 (9.1 %)      14 (31.8 %)
                15 (13.0 %)     16 (60.9 %)     17 (18.2 %)     18 (8.3 %)
                19 (30.4 %)     20 (31.8 %)     21 (18.2 %)     22 (13.6 %)
                23 (50.0 %)     
        Other   
Reading link:  /usr/local/packages/cadence_2017/spectre161/tools.lnx86/spectre/etc/ahdl/discipline.h
Reading file:  /misc/linuxws/packages/cadence_2017/spectre161/tools.lnx86/spectre/etc/ahdl/disciplines.vams
Reading link:  /usr/local/packages/cadence_2017/spectre161/tools.lnx86/spectre/etc/ahdl/constants.h
Reading file:  /misc/linuxws/packages/cadence_2017/spectre161/tools.lnx86/spectre/etc/ahdl/constants.vams
Time for Elaboration: CPU = 22.997 ms, elapsed = 24.9779 ms.
Time accumulated: CPU = 169.973 ms, elapsed = 250.821 ms.
Peak resident memory used = 53.2 Mbytes.


Time for EDB Visiting: CPU = 2 ms, elapsed = 1.56403 ms.
Time accumulated: CPU = 171.973 ms, elapsed = 252.605 ms.
Peak resident memory used = 53.8 Mbytes.


Notice from spectre during topology check.
    Only one connection to node `vdd!'.


Global user options:
             reltol = 0.001
            vabstol = 1e-06
            iabstol = 1e-12
               temp = 27
               gmin = 1e-12
             rforce = 1
           maxnotes = 5
           maxwarns = 5
             digits = 5
               cols = 80
             pivrel = 0.001
           sensfile = ../psf/sens.output
     checklimitdest = psf
               save = allpub
               tnom = 27
             scalem = 1
              scale = 1

Scoped user options:

Circuit inventory:
              nodes 13
              bsim4 20    
            vsource 3     

Analysis and control statement inventory:
               info 7     
               tran 1     

Output statements:
             .probe 0     
           .measure 0     
               save 1     

Time for parsing: CPU = 5 ms, elapsed = 5.78809 ms.
Time accumulated: CPU = 176.973 ms, elapsed = 258.59 ms.
Peak resident memory used = 55.1 Mbytes.

~~~~~~~~~~~~~~~~~~~~~~
Pre-Simulation Summary
~~~~~~~~~~~~~~~~~~~~~~
~~~~~~~~~~~~~~~~~~~~~~
Entering remote command mode using MPSC service (spectre, ipi, v0.0, spectre0_13907_32, ).

Warning from spectre.
    WARNING (SPECTRE-16707): Only tran supports psfxl format, result of other analyses will be in psfbin format.


***********************************************
Transient Analysis `tran': time = (0 s -> 6 ns)
***********************************************

Opening the PSFXL file ../psf/tran.tran.tran ...
Important parameter values:
    start = 0 s
    outputstart = 0 s
    stop = 6 ns
    step = 6 ps
    maxstep = 120 ps
    ic = all
    useprevic = no
    skipdc = no
    reltol = 1e-03
    abstol(V) = 1 uV
    abstol(I) = 1 pA
    temp = 27 C
    tnom = 27 C
    tempeffects = all
    errpreset = moderate
    method = traponly
    lteratio = 3.5
    relref = sigglobal
    cmin = 0 F
    gmin = 1 pS


Output and IC/nodeset summary:
                 save   3       (current)
                 save   13      (voltage)

    tran: time = 175.6 ps    (2.93 %), step = 40.22 ps     (670 m%)
    tran: time = 477.5 ps    (7.96 %), step = 32.66 ps     (544 m%)
    tran: time = 771.2 ps    (12.9 %), step = 31.52 ps     (525 m%)
    tran: time = 1.05 ns     (17.5 %), step = 9.067 ps     (151 m%)
    tran: time = 1.353 ns    (22.6 %), step = 29.66 ps     (494 m%)
    tran: time = 1.661 ns    (27.7 %), step = 49.3 ps      (822 m%)
    tran: time = 1.954 ns    (32.6 %), step = 37.72 ps     (629 m%)
    tran: time = 2.261 ns    (37.7 %), step = 30.8 ps      (513 m%)
    tran: time = 2.571 ns    (42.8 %), step = 25.07 ps     (418 m%)
    tran: time = 2.851 ns    (47.5 %), step = 33.09 ps     (551 m%)
    tran: time = 3.163 ns    (52.7 %), step = 33.69 ps     (561 m%)
    tran: time = 3.459 ns    (57.7 %), step = 20.91 ps     (349 m%)
    tran: time = 3.818 ns    (63.6 %), step = 120 ps          (2 %)

Notice from spectre at time = 4.0579 ns during transient analysis `tran'.
    Found trapezoidal ringing on node V0:p.

    tran: time = 4.058 ns    (67.6 %), step = 120 ps          (2 %)

Notice from spectre at time = 4.1779 ns during transient analysis `tran'.
    Found trapezoidal ringing on node V0:p.
Notice from spectre at time = 4.2979 ns during transient analysis `tran'.
    Found trapezoidal ringing on node V0:p.
Notice from spectre at time = 4.4179 ns during transient analysis `tran'.
    Found trapezoidal ringing on node V0:p.

    tran: time = 4.418 ns    (73.6 %), step = 120 ps          (2 %)

Notice from spectre at time = 4.5379 ns during transient analysis `tran'.
    Found trapezoidal ringing on node V0:p.
        Further occurrences of this notice will be suppressed.

    tran: time = 4.658 ns    (77.6 %), step = 120 ps          (2 %)
    tran: time = 5.018 ns    (83.6 %), step = 120 ps          (2 %)
    tran: time = 5.258 ns    (87.6 %), step = 120 ps          (2 %)
    tran: time = 5.618 ns    (93.6 %), step = 120 ps          (2 %)
    tran: time = 5.858 ns    (97.6 %), step = 120 ps          (2 %)
Number of accepted tran steps =             160

Notice from spectre during transient analysis `tran'.
    Trapezoidal ringing is detected during tran analysis.
        Please use method=trap for better results and performance.


Maximum value achieved for any signal of each quantity: 
V: V(out) = 743.7 mV
I: I(V0:p) = 22.6 uA
If your circuit contains signals of the same quantity that are vastly different in size (such as high voltage circuitry combined with low voltage control circuitry), you should consider specifying global option `bin_relref=yes'.

~~~~~~~~~~~~~~~~~~~~~~~~~~~~~~~~~
Post-Transient Simulation Summary
~~~~~~~~~~~~~~~~~~~~~~~~~~~~~~~~~
   -   To further speed up simulation, consider
          add ++aps on command line
~~~~~~~~~~~~~~~~~~~~~~~~~~~~~~~~~


During simulation, the CPU load for active processors is :
        Spectre  0 (24.2 %)      1 (26.5 %)      2 (11.8 %)      3 (6.1 %)
                 4 (6.1 %)       6 (84.8 %)      7 (32.4 %)      8 (16.1 %)
                10 (5.9 %)      12 (20.6 %)     13 (9.1 %)      14 (31.2 %)
                15 (9.1 %)      16 (45.7 %)     17 (17.6 %)     18 (5.7 %)
                19 (23.5 %)     20 (24.2 %)     21 (12.1 %)     22 (11.8 %)
                23 (53.1 %)     
        Other   
Initial condition solution time: CPU = 2 ms, elapsed = 2.29716 ms.
Intrinsic tran analysis time:    CPU = 52.992 ms, elapsed = 62.8982 ms.
Total time required for tran analysis `tran': CPU = 57.991 ms, elapsed = 72.854 ms.
Time accumulated: CPU = 237.963 ms, elapsed = 353.717 ms.
Peak resident memory used = 57.7 Mbytes.


Notice from spectre.
    13 notices suppressed.

finalTimeOP: writing operating point information to rawfile.

Opening the PSF file ../psf/finalTimeOP.info ...
modelParameter: writing model parameter values to rawfile.

Opening the PSF file ../psf/modelParameter.info ...
element: writing instance parameter values to rawfile.

Opening the PSF file ../psf/element.info ...
outputParameter: writing output parameter values to rawfile.

Opening the PSF file ../psf/outputParameter.info ...
designParamVals: writing netlist parameters to rawfile.

Opening the PSFASCII file ../psf/designParamVals.info ...
primitives: writing primitives to rawfile.

Opening the PSFASCII file ../psf/primitives.info.primitives ...
subckts: writing subcircuits to rawfile.

Opening the PSFASCII file ../psf/subckts.info.subckts ...

Warning from spectre.
    WARNING (SPECTRE-16707): Only tran supports psfxl format, result of other analyses will be in psfbin format.


***********************************************
Transient Analysis `tran': time = (0 s -> 6 ns)
***********************************************

Opening the PSFXL file ../psf/tran.tran.tran ...
Important parameter values:
    start = 0 s
    outputstart = 0 s
    stop = 6 ns
    step = 6 ps
    maxstep = 120 ps
    ic = all
    useprevic = no
    skipdc = no
    reltol = 1e-03
    abstol(V) = 1 uV
    abstol(I) = 1 pA
    temp = 27 C
    tnom = 27 C
    tempeffects = all
    errpreset = moderate
    method = traponly
    lteratio = 3.5
    relref = sigglobal
    cmin = 0 F
    gmin = 1 pS


Output and IC/nodeset summary:
                 save   3       (current)
                 save   13      (voltage)

    tran: time = 170.3 ps    (2.84 %), step = 37.68 ps     (628 m%)
    tran: time = 463.3 ps    (7.72 %), step = 25.79 ps     (430 m%)
    tran: time = 761.9 ps    (12.7 %), step = 38.61 ps     (644 m%)
    tran: time = 1.053 ns    (17.6 %), step = 9.118 ps     (152 m%)
    tran: time = 1.379 ns      (23 %), step = 31.25 ps     (521 m%)
    tran: time = 1.654 ns    (27.6 %), step = 30 ps        (500 m%)
    tran: time = 1.96 ns     (32.7 %), step = 20.82 ps     (347 m%)
    tran: time = 2.264 ns    (37.7 %), step = 28.91 ps     (482 m%)
    tran: time = 2.569 ns    (42.8 %), step = 27.68 ps     (461 m%)
    tran: time = 2.854 ns    (47.6 %), step = 22.82 ps     (380 m%)
    tran: time = 3.194 ns    (53.2 %), step = 57.75 ps     (962 m%)

Notice from spectre at time = 3.52142 ns during transient analysis `tran'.
    Found trapezoidal ringing on node V1:p.

    tran: time = 3.521 ns    (58.7 %), step = 120 ps          (2 %)

Notice from spectre at time = 3.64142 ns during transient analysis `tran'.
    Found trapezoidal ringing on node V1:p.
Notice from spectre at time = 3.76142 ns during transient analysis `tran'.
    Found trapezoidal ringing on node V1:p.

    tran: time = 3.761 ns    (62.7 %), step = 120 ps          (2 %)

Notice from spectre at time = 3.88142 ns during transient analysis `tran'.
    Found trapezoidal ringing on node V1:p.
Notice from spectre at time = 4.00142 ns during transient analysis `tran'.
    Found trapezoidal ringing on node V1:p.
        Further occurrences of this notice will be suppressed.

    tran: time = 4.121 ns    (68.7 %), step = 120 ps          (2 %)
    tran: time = 4.361 ns    (72.7 %), step = 120 ps          (2 %)
    tran: time = 4.721 ns    (78.7 %), step = 120 ps          (2 %)
    tran: time = 4.961 ns    (82.7 %), step = 120 ps          (2 %)
    tran: time = 5.321 ns    (88.7 %), step = 120 ps          (2 %)
    tran: time = 5.561 ns    (92.7 %), step = 120 ps          (2 %)
    tran: time = 5.901 ns    (98.3 %), step = 99.29 ps     (1.65 %)
Number of accepted tran steps =             170

Notice from spectre during transient analysis `tran'.
    Trapezoidal ringing is detected during tran analysis.
        Please use method=trap for better results and performance.


Maximum value achieved for any signal of each quantity: 
V: V(out) = 754.5 mV
I: I(V0:p) = 25.62 uA
If your circuit contains signals of the same quantity that are vastly different in size (such as high voltage circuitry combined with low voltage control circuitry), you should consider specifying global option `bin_relref=yes'.

~~~~~~~~~~~~~~~~~~~~~~~~~~~~~~~~~
Post-Transient Simulation Summary
~~~~~~~~~~~~~~~~~~~~~~~~~~~~~~~~~
   -   To further speed up simulation, consider
          add ++aps on command line
~~~~~~~~~~~~~~~~~~~~~~~~~~~~~~~~~


During simulation, the CPU load for active processors is :
        Spectre  0 (15.0 %)      1 (16.2 %)      2 (7.4 %)       3 (5.0 %)
                 4 (7.3 %)       5 (1.2 %)       6 (93.9 %)      7 (19.5 %)
                 8 (20.0 %)      9 (5.0 %)      10 (2.5 %)      11 (1.2 %)
                12 (12.5 %)     13 (9.9 %)      14 (23.5 %)     15 (8.6 %)
                16 (22.0 %)     17 (8.5 %)      18 (2.4 %)      19 (12.2 %)
                20 (12.3 %)     21 (7.5 %)      22 (6.1 %)      23 (45.1 %)
        Other   
Initial condition solution time: CPU = 2 ms, elapsed = 2.45118 ms.
Intrinsic tran analysis time:    CPU = 54.992 ms, elapsed = 64.616 ms.
Total time required for tran analysis `tran': CPU = 58.99 ms, elapsed = 74.4741 ms.
Time accumulated: CPU = 340.947 ms, elapsed = 835.217 ms.
Peak resident memory used = 58.8 Mbytes.


Notice from spectre.
    17 notices suppressed.

finalTimeOP: writing operating point information to rawfile.

Opening the PSF file ../psf/finalTimeOP.info ...
modelParameter: writing model parameter values to rawfile.

Opening the PSF file ../psf/modelParameter.info ...
element: writing instance parameter values to rawfile.

Opening the PSF file ../psf/element.info ...
outputParameter: writing output parameter values to rawfile.

Opening the PSF file ../psf/outputParameter.info ...
designParamVals: writing netlist parameters to rawfile.

Opening the PSFASCII file ../psf/designParamVals.info ...
primitives: writing primitives to rawfile.

Opening the PSFASCII file ../psf/primitives.info.primitives ...
subckts: writing subcircuits to rawfile.

Opening the PSFASCII file ../psf/subckts.info.subckts ...

Warning from spectre.
    WARNING (SPECTRE-16707): Only tran supports psfxl format, result of other analyses will be in psfbin format.


***********************************************
Transient Analysis `tran': time = (0 s -> 6 ns)
***********************************************

Opening the PSFXL file ../psf/tran.tran.tran ...
Important parameter values:
    start = 0 s
    outputstart = 0 s
    stop = 6 ns
    step = 6 ps
    maxstep = 120 ps
    ic = all
    useprevic = no
    skipdc = no
    reltol = 1e-03
    abstol(V) = 1 uV
    abstol(I) = 1 pA
    temp = 27 C
    tnom = 27 C
    tempeffects = all
    errpreset = moderate
    method = traponly
    lteratio = 3.5
    relref = sigglobal
    cmin = 0 F
    gmin = 1 pS


Output and IC/nodeset summary:
                 save   3       (current)
                 save   13      (voltage)

    tran: time = 165.3 ps    (2.75 %), step = 22.54 ps     (376 m%)
    tran: time = 457.3 ps    (7.62 %), step = 33.05 ps     (551 m%)
    tran: time = 757.7 ps    (12.6 %), step = 21.35 ps     (356 m%)
    tran: time = 1.06 ns     (17.7 %), step = 12.03 ps     (201 m%)
    tran: time = 1.351 ns    (22.5 %), step = 20.24 ps     (337 m%)
    tran: time = 1.654 ns    (27.6 %), step = 16.18 ps     (270 m%)
    tran: time = 1.951 ns    (32.5 %), step = 19.3 ps      (322 m%)
    tran: time = 2.258 ns    (37.6 %), step = 22.67 ps     (378 m%)
    tran: time = 2.563 ns    (42.7 %), step = 23.42 ps     (390 m%)
    tran: time = 2.881 ns      (48 %), step = 51.62 ps     (860 m%)

Notice from spectre at time = 3.08945 ns during transient analysis `tran'.
    Found trapezoidal ringing on node V1:p.
Notice from spectre at time = 3.20945 ns during transient analysis `tran'.
    Found trapezoidal ringing on node V1:p.

    tran: time = 3.209 ns    (53.5 %), step = 120 ps          (2 %)

Notice from spectre at time = 3.32945 ns during transient analysis `tran'.
    Found trapezoidal ringing on node V1:p.
Notice from spectre at time = 3.44945 ns during transient analysis `tran'.
    Found trapezoidal ringing on node V1:p.
Notice from spectre at time = 3.56945 ns during transient analysis `tran'.
    Found trapezoidal ringing on node V1:p.
        Further occurrences of this notice will be suppressed.

    tran: time = 3.569 ns    (59.5 %), step = 120 ps          (2 %)
    tran: time = 3.809 ns    (63.5 %), step = 120 ps          (2 %)
    tran: time = 4.169 ns    (69.5 %), step = 120 ps          (2 %)
    tran: time = 4.409 ns    (73.5 %), step = 120 ps          (2 %)
    tran: time = 4.769 ns    (79.5 %), step = 120 ps          (2 %)
    tran: time = 5.009 ns    (83.5 %), step = 120 ps          (2 %)
    tran: time = 5.369 ns    (89.5 %), step = 120 ps          (2 %)
    tran: time = 5.609 ns    (93.5 %), step = 120 ps          (2 %)
    tran: time = 5.925 ns    (98.7 %), step = 75.27 ps     (1.25 %)
Number of accepted tran steps =             178

Notice from spectre during transient analysis `tran'.
    Trapezoidal ringing is detected during tran analysis.
        Please use method=trap for better results and performance.


Maximum value achieved for any signal of each quantity: 
V: V(out) = 770 mV
I: I(V0:p) = 24.54 uA
If your circuit contains signals of the same quantity that are vastly different in size (such as high voltage circuitry combined with low voltage control circuitry), you should consider specifying global option `bin_relref=yes'.

~~~~~~~~~~~~~~~~~~~~~~~~~~~~~~~~~
Post-Transient Simulation Summary
~~~~~~~~~~~~~~~~~~~~~~~~~~~~~~~~~
   -   To further speed up simulation, consider
          add ++aps on command line
~~~~~~~~~~~~~~~~~~~~~~~~~~~~~~~~~


During simulation, the CPU load for active processors is :
        Spectre  0 (12.8 %)      1 (15.1 %)      2 (7.1 %)       3 (4.0 %)
                 4 (5.5 %)       5 (1.6 %)       6 (96.1 %)      7 (15.7 %)
                 8 (21.6 %)      9 (4.0 %)      10 (3.2 %)      11 (1.6 %)
                12 (10.3 %)     13 (11.0 %)     14 (16.7 %)     15 (10.3 %)
                16 (15.0 %)     17 (6.2 %)      18 (2.4 %)      19 (8.7 %)
                20 (11.1 %)     21 (8.7 %)      22 (5.5 %)      23 (40.6 %)
        Other   
Initial condition solution time: CPU = 3 ms, elapsed = 2.44999 ms.
Intrinsic tran analysis time:    CPU = 58.991 ms, elapsed = 67.513 ms.
Total time required for tran analysis `tran': CPU = 63.99 ms, elapsed = 77.4429 ms.
Time accumulated: CPU = 449.931 ms, elapsed = 1.29578 s.
Peak resident memory used = 59.3 Mbytes.


Notice from spectre.
    21 notices suppressed.

finalTimeOP: writing operating point information to rawfile.

Opening the PSF file ../psf/finalTimeOP.info ...
modelParameter: writing model parameter values to rawfile.

Opening the PSF file ../psf/modelParameter.info ...
element: writing instance parameter values to rawfile.

Opening the PSF file ../psf/element.info ...
outputParameter: writing output parameter values to rawfile.

Opening the PSF file ../psf/outputParameter.info ...
designParamVals: writing netlist parameters to rawfile.

Opening the PSFASCII file ../psf/designParamVals.info ...
primitives: writing primitives to rawfile.

Opening the PSFASCII file ../psf/primitives.info.primitives ...
subckts: writing subcircuits to rawfile.

Opening the PSFASCII file ../psf/subckts.info.subckts ...

Warning from spectre.
    WARNING (SPECTRE-16707): Only tran supports psfxl format, result of other analyses will be in psfbin format.


***********************************************
Transient Analysis `tran': time = (0 s -> 6 ns)
***********************************************

Opening the PSFXL file ../psf/tran.tran.tran ...
Important parameter values:
    start = 0 s
    outputstart = 0 s
    stop = 6 ns
    step = 6 ps
    maxstep = 120 ps
    ic = all
    useprevic = no
    skipdc = no
    reltol = 1e-03
    abstol(V) = 1 uV
    abstol(I) = 1 pA
    temp = 27 C
    tnom = 27 C
    tempeffects = all
    errpreset = moderate
    method = traponly
    lteratio = 3.5
    relref = sigglobal
    cmin = 0 F
    gmin = 1 pS


Output and IC/nodeset summary:
                 save   3       (current)
                 save   13      (voltage)

    tran: time = 160.3 ps    (2.67 %), step = 17.68 ps     (295 m%)
    tran: time = 459.2 ps    (7.65 %), step = 21.05 ps     (351 m%)
    tran: time = 752 ps      (12.5 %), step = 26.69 ps     (445 m%)
    tran: time = 1.053 ns    (17.6 %), step = 9.625 ps     (160 m%)
    tran: time = 1.358 ns    (22.6 %), step = 15.78 ps     (263 m%)
    tran: time = 1.656 ns    (27.6 %), step = 16.4 ps      (273 m%)
    tran: time = 1.969 ns    (32.8 %), step = 20.23 ps     (337 m%)
    tran: time = 2.256 ns    (37.6 %), step = 15.95 ps     (266 m%)
    tran: time = 2.586 ns    (43.1 %), step = 36.28 ps     (605 m%)

Notice from spectre at time = 2.83192 ns during transient analysis `tran'.
    Found trapezoidal ringing on node V1:p.
Notice from spectre at time = 2.95192 ns during transient analysis `tran'.
    Found trapezoidal ringing on node V1:p.

    tran: time = 2.952 ns    (49.2 %), step = 120 ps          (2 %)

Notice from spectre at time = 3.07192 ns during transient analysis `tran'.
    Found trapezoidal ringing on node V1:p.
Notice from spectre at time = 3.19192 ns during transient analysis `tran'.
    Found trapezoidal ringing on node V1:p.

    tran: time = 3.192 ns    (53.2 %), step = 120 ps          (2 %)

Notice from spectre at time = 3.31192 ns during transient analysis `tran'.
    Found trapezoidal ringing on node V1:p.
        Further occurrences of this notice will be suppressed.

    tran: time = 3.552 ns    (59.2 %), step = 120 ps          (2 %)
    tran: time = 3.792 ns    (63.2 %), step = 120 ps          (2 %)
    tran: time = 4.152 ns    (69.2 %), step = 120 ps          (2 %)
    tran: time = 4.392 ns    (73.2 %), step = 120 ps          (2 %)
    tran: time = 4.752 ns    (79.2 %), step = 120 ps          (2 %)
    tran: time = 4.992 ns    (83.2 %), step = 120 ps          (2 %)
    tran: time = 5.352 ns    (89.2 %), step = 120 ps          (2 %)
    tran: time = 5.592 ns    (93.2 %), step = 120 ps          (2 %)
    tran: time = 5.916 ns    (98.6 %), step = 84.04 ps      (1.4 %)
Number of accepted tran steps =             185

Notice from spectre during transient analysis `tran'.
    Trapezoidal ringing is detected during tran analysis.
        Please use method=trap for better results and performance.


Maximum value achieved for any signal of each quantity: 
V: V(out) = 783.9 mV
I: I(V0:p) = 28.06 uA
If your circuit contains signals of the same quantity that are vastly different in size (such as high voltage circuitry combined with low voltage control circuitry), you should consider specifying global option `bin_relref=yes'.

~~~~~~~~~~~~~~~~~~~~~~~~~~~~~~~~~
Post-Transient Simulation Summary
~~~~~~~~~~~~~~~~~~~~~~~~~~~~~~~~~
   -   To further speed up simulation, consider
          add ++aps on command line
~~~~~~~~~~~~~~~~~~~~~~~~~~~~~~~~~


During simulation, the CPU load for active processors is :
        Spectre  0 (11.3 %)      1 (13.0 %)      2 (7.1 %)       3 (3.6 %)
                 4 (5.2 %)       5 (1.2 %)       6 (97.1 %)      7 (14.1 %)
                 8 (22.0 %)      9 (4.2 %)      10 (3.6 %)      11 (2.9 %)
                12 (20.0 %)     13 (9.9 %)      14 (13.0 %)     15 (8.2 %)
                16 (11.6 %)     17 (5.2 %)      18 (2.3 %)      19 (7.6 %)
                20 (11.2 %)     21 (7.1 %)      22 (5.2 %)      23 (40.7 %)
        Other   
Initial condition solution time: CPU = 2 ms, elapsed = 2.42996 ms.
Intrinsic tran analysis time:    CPU = 60.991 ms, elapsed = 70.1761 ms.
Total time required for tran analysis `tran': CPU = 65.991 ms, elapsed = 80.4119 ms.
Time accumulated: CPU = 558.914 ms, elapsed = 1.73554 s.
Peak resident memory used = 59.8 Mbytes.


Notice from spectre.
    23 notices suppressed.

finalTimeOP: writing operating point information to rawfile.

Opening the PSF file ../psf/finalTimeOP.info ...
modelParameter: writing model parameter values to rawfile.

Opening the PSF file ../psf/modelParameter.info ...
element: writing instance parameter values to rawfile.

Opening the PSF file ../psf/element.info ...
outputParameter: writing output parameter values to rawfile.

Opening the PSF file ../psf/outputParameter.info ...
designParamVals: writing netlist parameters to rawfile.

Opening the PSFASCII file ../psf/designParamVals.info ...
primitives: writing primitives to rawfile.

Opening the PSFASCII file ../psf/primitives.info.primitives ...
subckts: writing subcircuits to rawfile.

Opening the PSFASCII file ../psf/subckts.info.subckts ...

Warning from spectre.
    WARNING (SPECTRE-16707): Only tran supports psfxl format, result of other analyses will be in psfbin format.


***********************************************
Transient Analysis `tran': time = (0 s -> 6 ns)
***********************************************

Opening the PSFXL file ../psf/tran.tran.tran ...
Important parameter values:
    start = 0 s
    outputstart = 0 s
    stop = 6 ns
    step = 6 ps
    maxstep = 120 ps
    ic = all
    useprevic = no
    skipdc = no
    reltol = 1e-03
    abstol(V) = 1 uV
    abstol(I) = 1 pA
    temp = 27 C
    tnom = 27 C
    tempeffects = all
    errpreset = moderate
    method = traponly
    lteratio = 3.5
    relref = sigglobal
    cmin = 0 F
    gmin = 1 pS


Output and IC/nodeset summary:
                 save   3       (current)
                 save   13      (voltage)

    tran: time = 162.7 ps    (2.71 %), step = 13.4 ps      (223 m%)
    tran: time = 450.1 ps     (7.5 %), step = 13.57 ps     (226 m%)
    tran: time = 767.2 ps    (12.8 %), step = 23.87 ps     (398 m%)
    tran: time = 1.05 ns     (17.5 %), step = 8.945 ps     (149 m%)
    tran: time = 1.353 ns    (22.5 %), step = 22.71 ps     (378 m%)
    tran: time = 1.658 ns    (27.6 %), step = 15.48 ps     (258 m%)
    tran: time = 1.962 ns    (32.7 %), step = 14.94 ps     (249 m%)
    tran: time = 2.251 ns    (37.5 %), step = 16.83 ps     (281 m%)

Notice from spectre at time = 2.63369 ns during transient analysis `tran'.
    Found trapezoidal ringing on node V1:p.

    tran: time = 2.634 ns    (43.9 %), step = 120 ps          (2 %)

Notice from spectre at time = 2.75369 ns during transient analysis `tran'.
    Found trapezoidal ringing on node V1:p.
Notice from spectre at time = 2.87369 ns during transient analysis `tran'.
    Found trapezoidal ringing on node V1:p.

    tran: time = 2.874 ns    (47.9 %), step = 120 ps          (2 %)

Notice from spectre at time = 2.99369 ns during transient analysis `tran'.
    Found trapezoidal ringing on node V1:p.
Notice from spectre at time = 3.11369 ns during transient analysis `tran'.
    Found trapezoidal ringing on node V1:p.
        Further occurrences of this notice will be suppressed.

    tran: time = 3.234 ns    (53.9 %), step = 120 ps          (2 %)
    tran: time = 3.474 ns    (57.9 %), step = 120 ps          (2 %)
    tran: time = 3.834 ns    (63.9 %), step = 120 ps          (2 %)
    tran: time = 4.074 ns    (67.9 %), step = 120 ps          (2 %)
    tran: time = 4.434 ns    (73.9 %), step = 120 ps          (2 %)
    tran: time = 4.674 ns    (77.9 %), step = 120 ps          (2 %)
    tran: time = 5.034 ns    (83.9 %), step = 120 ps          (2 %)
    tran: time = 5.274 ns    (87.9 %), step = 120 ps          (2 %)
    tran: time = 5.634 ns    (93.9 %), step = 120 ps          (2 %)
    tran: time = 5.874 ns    (97.9 %), step = 120 ps          (2 %)
Number of accepted tran steps =             195

Notice from spectre during transient analysis `tran'.
    Trapezoidal ringing is detected during tran analysis.
        Please use method=trap for better results and performance.


Maximum value achieved for any signal of each quantity: 
V: V(out) = 794.2 mV
I: I(V0:p) = 29.43 uA
If your circuit contains signals of the same quantity that are vastly different in size (such as high voltage circuitry combined with low voltage control circuitry), you should consider specifying global option `bin_relref=yes'.

~~~~~~~~~~~~~~~~~~~~~~~~~~~~~~~~~
Post-Transient Simulation Summary
~~~~~~~~~~~~~~~~~~~~~~~~~~~~~~~~~
   -   To further speed up simulation, consider
          add ++aps on command line
~~~~~~~~~~~~~~~~~~~~~~~~~~~~~~~~~


During simulation, the CPU load for active processors is :
        Spectre  0 (13.2 %)      1 (11.9 %)      2 (7.8 %)       3 (4.6 %)
                 4 (4.1 %)       6 (97.7 %)      7 (13.2 %)      8 (22.4 %)
                 9 (4.6 %)      10 (3.7 %)      11 (3.6 %)      12 (18.3 %)
                13 (9.5 %)      14 (14.5 %)     15 (9.1 %)      16 (9.5 %)
                17 (4.0 %)      18 (1.8 %)      19 (5.9 %)      20 (12.2 %)
                21 (5.9 %)      22 (5.4 %)      23 (39.8 %)     
        Other   
Initial condition solution time: CPU = 2 ms, elapsed = 2.42805 ms.
Intrinsic tran analysis time:    CPU = 62.991 ms, elapsed = 73.602 ms.
Total time required for tran analysis `tran': CPU = 68.99 ms, elapsed = 83.7851 ms.
Time accumulated: CPU = 673.896 ms, elapsed = 2.23854 s.
Peak resident memory used = 60.2 Mbytes.


Notice from spectre.
    25 notices suppressed.

finalTimeOP: writing operating point information to rawfile.

Opening the PSF file ../psf/finalTimeOP.info ...
modelParameter: writing model parameter values to rawfile.

Opening the PSF file ../psf/modelParameter.info ...
element: writing instance parameter values to rawfile.

Opening the PSF file ../psf/element.info ...
outputParameter: writing output parameter values to rawfile.

Opening the PSF file ../psf/outputParameter.info ...
designParamVals: writing netlist parameters to rawfile.

Opening the PSFASCII file ../psf/designParamVals.info ...
primitives: writing primitives to rawfile.

Opening the PSFASCII file ../psf/primitives.info.primitives ...
subckts: writing subcircuits to rawfile.

Opening the PSFASCII file ../psf/subckts.info.subckts ...

Warning from spectre.
    WARNING (SPECTRE-16707): Only tran supports psfxl format, result of other analyses will be in psfbin format.


***********************************************
Transient Analysis `tran': time = (0 s -> 6 ns)
***********************************************

Opening the PSFXL file ../psf/tran.tran.tran ...
Important parameter values:
    start = 0 s
    outputstart = 0 s
    stop = 6 ns
    step = 6 ps
    maxstep = 120 ps
    ic = all
    useprevic = no
    skipdc = no
    reltol = 1e-03
    abstol(V) = 1 uV
    abstol(I) = 1 pA
    temp = 27 C
    tnom = 27 C
    tempeffects = all
    errpreset = moderate
    method = traponly
    lteratio = 3.5
    relref = sigglobal
    cmin = 0 F
    gmin = 1 pS


Output and IC/nodeset summary:
                 save   3       (current)
                 save   13      (voltage)

    tran: time = 150.3 ps    (2.51 %), step = 12.02 ps     (200 m%)
    tran: time = 463.3 ps    (7.72 %), step = 14.63 ps     (244 m%)
    tran: time = 753.3 ps    (12.6 %), step = 18.51 ps     (308 m%)
    tran: time = 1.054 ns    (17.6 %), step = 9.889 ps     (165 m%)
    tran: time = 1.351 ns    (22.5 %), step = 14.69 ps     (245 m%)
    tran: time = 1.662 ns    (27.7 %), step = 17.29 ps     (288 m%)
    tran: time = 1.962 ns    (32.7 %), step = 17.36 ps     (289 m%)
    tran: time = 2.261 ns    (37.7 %), step = 50.81 ps     (847 m%)

Notice from spectre at time = 2.46015 ns during transient analysis `tran'.
    Found trapezoidal ringing on node V1:p.
Notice from spectre at time = 2.58015 ns during transient analysis `tran'.
    Found trapezoidal ringing on node V1:p.

    tran: time = 2.58 ns       (43 %), step = 120 ps          (2 %)

Notice from spectre at time = 2.70015 ns during transient analysis `tran'.
    Found trapezoidal ringing on node V1:p.
Notice from spectre at time = 2.82015 ns during transient analysis `tran'.
    Found trapezoidal ringing on node V1:p.
Notice from spectre at time = 2.94015 ns during transient analysis `tran'.
    Found trapezoidal ringing on node V1:p.
        Further occurrences of this notice will be suppressed.

    tran: time = 2.94 ns       (49 %), step = 120 ps          (2 %)
    tran: time = 3.18 ns       (53 %), step = 120 ps          (2 %)
    tran: time = 3.54 ns       (59 %), step = 120 ps          (2 %)
    tran: time = 3.78 ns       (63 %), step = 120 ps          (2 %)
    tran: time = 4.14 ns       (69 %), step = 120 ps          (2 %)
    tran: time = 4.38 ns       (73 %), step = 120 ps          (2 %)
    tran: time = 4.74 ns       (79 %), step = 120 ps          (2 %)
    tran: time = 4.98 ns       (83 %), step = 120 ps          (2 %)
    tran: time = 5.34 ns       (89 %), step = 120 ps          (2 %)
    tran: time = 5.58 ns       (93 %), step = 120 ps          (2 %)
    tran: time = 5.91 ns     (98.5 %), step = 89.92 ps      (1.5 %)
Number of accepted tran steps =             201

Notice from spectre during transient analysis `tran'.
    Trapezoidal ringing is detected during tran analysis.
        Please use method=trap for better results and performance.


Maximum value achieved for any signal of each quantity: 
V: V(out) = 806.2 mV
I: I(V0:p) = 28.58 uA
If your circuit contains signals of the same quantity that are vastly different in size (such as high voltage circuitry combined with low voltage control circuitry), you should consider specifying global option `bin_relref=yes'.

~~~~~~~~~~~~~~~~~~~~~~~~~~~~~~~~~
Post-Transient Simulation Summary
~~~~~~~~~~~~~~~~~~~~~~~~~~~~~~~~~
   -   To further speed up simulation, consider
          add ++aps on command line
~~~~~~~~~~~~~~~~~~~~~~~~~~~~~~~~~


During simulation, the CPU load for active processors is :
        Spectre  0 (12.6 %)      1 (11.1 %)      2 (7.3 %)       3 (4.6 %)
                 4 (4.2 %)       5 (1.1 %)       6 (98.1 %)      7 (15.2 %)
                 8 (22.7 %)      9 (7.6 %)      10 (3.4 %)      11 (3.8 %)
                12 (16.0 %)     13 (12.8 %)     14 (14.4 %)     15 (9.1 %)
                16 (8.7 %)      17 (3.8 %)      18 (1.9 %)      19 (6.4 %)
                20 (14.4 %)     21 (6.8 %)      22 (5.7 %)      23 (40.4 %)
        Other   
Initial condition solution time: CPU = 2 ms, elapsed = 2.41685 ms.
Intrinsic tran analysis time:    CPU = 64.99 ms, elapsed = 74.439 ms.
Total time required for tran analysis `tran': CPU = 69.99 ms, elapsed = 84.3508 ms.
Time accumulated: CPU = 788.879 ms, elapsed = 2.68079 s.
Peak resident memory used = 60.7 Mbytes.


Notice from spectre.
    26 notices suppressed.

finalTimeOP: writing operating point information to rawfile.

Opening the PSF file ../psf/finalTimeOP.info ...
modelParameter: writing model parameter values to rawfile.

Opening the PSF file ../psf/modelParameter.info ...
element: writing instance parameter values to rawfile.

Opening the PSF file ../psf/element.info ...
outputParameter: writing output parameter values to rawfile.

Opening the PSF file ../psf/outputParameter.info ...
designParamVals: writing netlist parameters to rawfile.

Opening the PSFASCII file ../psf/designParamVals.info ...
primitives: writing primitives to rawfile.

Opening the PSFASCII file ../psf/primitives.info.primitives ...
subckts: writing subcircuits to rawfile.

Opening the PSFASCII file ../psf/subckts.info.subckts ...

Warning from spectre.
    WARNING (SPECTRE-16707): Only tran supports psfxl format, result of other analyses will be in psfbin format.


***********************************************
Transient Analysis `tran': time = (0 s -> 6 ns)
***********************************************

Opening the PSFXL file ../psf/tran.tran.tran ...
Important parameter values:
    start = 0 s
    outputstart = 0 s
    stop = 6 ns
    step = 6 ps
    maxstep = 120 ps
    ic = all
    useprevic = no
    skipdc = no
    reltol = 1e-03
    abstol(V) = 1 uV
    abstol(I) = 1 pA
    temp = 27 C
    tnom = 27 C
    tempeffects = all
    errpreset = moderate
    method = traponly
    lteratio = 3.5
    relref = sigglobal
    cmin = 0 F
    gmin = 1 pS


Output and IC/nodeset summary:
                 save   3       (current)
                 save   13      (voltage)

    tran: time = 155.8 ps     (2.6 %), step = 14.71 ps     (245 m%)
    tran: time = 459.2 ps    (7.65 %), step = 16.32 ps     (272 m%)
    tran: time = 752.7 ps    (12.5 %), step = 10.83 ps     (181 m%)
    tran: time = 1.064 ns    (17.7 %), step = 14.68 ps     (245 m%)
    tran: time = 1.362 ns    (22.7 %), step = 14.77 ps     (246 m%)
    tran: time = 1.657 ns    (27.6 %), step = 11.13 ps     (185 m%)
    tran: time = 1.957 ns    (32.6 %), step = 13.18 ps     (220 m%)

Notice from spectre at time = 2.31874 ns during transient analysis `tran'.
    Found trapezoidal ringing on node V1:p.

    tran: time = 2.319 ns    (38.6 %), step = 120 ps          (2 %)

Notice from spectre at time = 2.43874 ns during transient analysis `tran'.
    Found trapezoidal ringing on node V1:p.
Notice from spectre at time = 2.55874 ns during transient analysis `tran'.
    Found trapezoidal ringing on node V1:p.

    tran: time = 2.559 ns    (42.6 %), step = 120 ps          (2 %)

Notice from spectre at time = 2.67874 ns during transient analysis `tran'.
    Found trapezoidal ringing on node V1:p.
Notice from spectre at time = 2.79874 ns during transient analysis `tran'.
    Found trapezoidal ringing on node V1:p.
        Further occurrences of this notice will be suppressed.

    tran: time = 2.919 ns    (48.6 %), step = 120 ps          (2 %)
    tran: time = 3.159 ns    (52.6 %), step = 120 ps          (2 %)
    tran: time = 3.519 ns    (58.6 %), step = 120 ps          (2 %)
    tran: time = 3.759 ns    (62.6 %), step = 120 ps          (2 %)
    tran: time = 4.119 ns    (68.6 %), step = 120 ps          (2 %)
    tran: time = 4.359 ns    (72.6 %), step = 120 ps          (2 %)
    tran: time = 4.719 ns    (78.6 %), step = 120 ps          (2 %)
    tran: time = 4.959 ns    (82.6 %), step = 120 ps          (2 %)
    tran: time = 5.319 ns    (88.6 %), step = 120 ps          (2 %)
    tran: time = 5.559 ns    (92.6 %), step = 120 ps          (2 %)
    tran: time = 5.919 ns    (98.6 %), step = 120 ps          (2 %)
Number of accepted tran steps =             215

Notice from spectre during transient analysis `tran'.
    Trapezoidal ringing is detected during tran analysis.
        Please use method=trap for better results and performance.


Maximum value achieved for any signal of each quantity: 
V: V(out) = 819.1 mV
I: I(V0:p) = 31.19 uA
If your circuit contains signals of the same quantity that are vastly different in size (such as high voltage circuitry combined with low voltage control circuitry), you should consider specifying global option `bin_relref=yes'.

~~~~~~~~~~~~~~~~~~~~~~~~~~~~~~~~~
Post-Transient Simulation Summary
~~~~~~~~~~~~~~~~~~~~~~~~~~~~~~~~~
   -   To further speed up simulation, consider
          add ++aps on command line
~~~~~~~~~~~~~~~~~~~~~~~~~~~~~~~~~


During simulation, the CPU load for active processors is :
        Spectre  0 (13.7 %)      1 (12.6 %)      2 (7.7 %)       3 (5.1 %)
                 4 (4.8 %)       6 (96.5 %)      7 (17.0 %)      8 (22.3 %)
                 9 (7.4 %)      10 (3.2 %)      11 (3.8 %)      12 (15.7 %)
                13 (16.6 %)     14 (13.4 %)     15 (9.3 %)      16 (9.2 %)
                17 (3.8 %)      18 (1.9 %)      19 (8.2 %)      20 (16.2 %)
                21 (7.7 %)      22 (5.4 %)      23 (40.6 %)     
        Other   
Initial condition solution time: CPU = 2.999 ms, elapsed = 2.45404 ms.
Intrinsic tran analysis time:    CPU = 70.989 ms, elapsed = 79.2689 ms.
Total time required for tran analysis `tran': CPU = 75.988 ms, elapsed = 89.6668 ms.
Time accumulated: CPU = 911.86 ms, elapsed = 3.18231 s.
Peak resident memory used = 61.2 Mbytes.


Notice from spectre.
    27 notices suppressed.

finalTimeOP: writing operating point information to rawfile.

Opening the PSF file ../psf/finalTimeOP.info ...
modelParameter: writing model parameter values to rawfile.

Opening the PSF file ../psf/modelParameter.info ...
element: writing instance parameter values to rawfile.

Opening the PSF file ../psf/element.info ...
outputParameter: writing output parameter values to rawfile.

Opening the PSF file ../psf/outputParameter.info ...
designParamVals: writing netlist parameters to rawfile.

Opening the PSFASCII file ../psf/designParamVals.info ...
primitives: writing primitives to rawfile.

Opening the PSFASCII file ../psf/primitives.info.primitives ...
subckts: writing subcircuits to rawfile.

Opening the PSFASCII file ../psf/subckts.info.subckts ...

Warning from spectre.
    WARNING (SPECTRE-16707): Only tran supports psfxl format, result of other analyses will be in psfbin format.


***********************************************
Transient Analysis `tran': time = (0 s -> 6 ns)
***********************************************

Opening the PSFXL file ../psf/tran.tran.tran ...
Important parameter values:
    start = 0 s
    outputstart = 0 s
    stop = 6 ns
    step = 6 ps
    maxstep = 120 ps
    ic = all
    useprevic = no
    skipdc = no
    reltol = 1e-03
    abstol(V) = 1 uV
    abstol(I) = 1 pA
    temp = 27 C
    tnom = 27 C
    tempeffects = all
    errpreset = moderate
    method = traponly
    lteratio = 3.5
    relref = sigglobal
    cmin = 0 F
    gmin = 1 pS


Output and IC/nodeset summary:
                 save   3       (current)
                 save   13      (voltage)

    tran: time = 163.1 ps    (2.72 %), step = 13.77 ps     (229 m%)
    tran: time = 458.1 ps    (7.63 %), step = 11.75 ps     (196 m%)
    tran: time = 756 ps      (12.6 %), step = 11.65 ps     (194 m%)
    tran: time = 1.059 ns    (17.6 %), step = 12.06 ps     (201 m%)
    tran: time = 1.354 ns    (22.6 %), step = 13.8 ps      (230 m%)
    tran: time = 1.651 ns    (27.5 %), step = 10.42 ps     (174 m%)
    tran: time = 1.979 ns      (33 %), step = 37 ps        (617 m%)

Notice from spectre at time = 2.15512 ns during transient analysis `tran'.
    Found trapezoidal ringing on node V1:p.
Notice from spectre at time = 2.27512 ns during transient analysis `tran'.
    Found trapezoidal ringing on node V1:p.

    tran: time = 2.275 ns    (37.9 %), step = 120 ps          (2 %)

Notice from spectre at time = 2.39512 ns during transient analysis `tran'.
    Found trapezoidal ringing on node V1:p.
Notice from spectre at time = 2.51512 ns during transient analysis `tran'.
    Found trapezoidal ringing on node V1:p.
Notice from spectre at time = 2.63512 ns during transient analysis `tran'.
    Found trapezoidal ringing on node V1:p.
        Further occurrences of this notice will be suppressed.

    tran: time = 2.635 ns    (43.9 %), step = 120 ps          (2 %)
    tran: time = 2.875 ns    (47.9 %), step = 120 ps          (2 %)
    tran: time = 3.235 ns    (53.9 %), step = 120 ps          (2 %)
    tran: time = 3.475 ns    (57.9 %), step = 120 ps          (2 %)
    tran: time = 3.835 ns    (63.9 %), step = 120 ps          (2 %)
    tran: time = 4.075 ns    (67.9 %), step = 120 ps          (2 %)
    tran: time = 4.435 ns    (73.9 %), step = 120 ps          (2 %)
    tran: time = 4.675 ns    (77.9 %), step = 120 ps          (2 %)
    tran: time = 5.035 ns    (83.9 %), step = 120 ps          (2 %)
    tran: time = 5.275 ns    (87.9 %), step = 120 ps          (2 %)
    tran: time = 5.635 ns    (93.9 %), step = 120 ps          (2 %)
    tran: time = 5.875 ns    (97.9 %), step = 120 ps          (2 %)
Number of accepted tran steps =             219

Notice from spectre during transient analysis `tran'.
    Trapezoidal ringing is detected during tran analysis.
        Please use method=trap for better results and performance.


Maximum value achieved for any signal of each quantity: 
V: V(out) = 832.2 mV
I: I(V0:p) = 32.69 uA
If your circuit contains signals of the same quantity that are vastly different in size (such as high voltage circuitry combined with low voltage control circuitry), you should consider specifying global option `bin_relref=yes'.

~~~~~~~~~~~~~~~~~~~~~~~~~~~~~~~~~
Post-Transient Simulation Summary
~~~~~~~~~~~~~~~~~~~~~~~~~~~~~~~~~
   -   To further speed up simulation, consider
          add ++aps on command line
~~~~~~~~~~~~~~~~~~~~~~~~~~~~~~~~~


During simulation, the CPU load for active processors is :
        Spectre  0 (12.7 %)      1 (25.0 %)      2 (8.3 %)       3 (5.8 %)
                 4 (5.2 %)       5 (1.4 %)       6 (86.3 %)      7 (19.6 %)
                 8 (20.7 %)      9 (6.9 %)      10 (3.0 %)      11 (3.8 %)
                12 (14.9 %)     13 (14.3 %)     14 (12.9 %)     15 (11.9 %)
                16 (10.1 %)     17 (4.1 %)      18 (4.1 %)      19 (13.1 %)
                20 (15.4 %)     21 (7.7 %)      22 (5.2 %)      23 (40.5 %)
        Other   
Initial condition solution time: CPU = 2.999 ms, elapsed = 2.71416 ms.
Intrinsic tran analysis time:    CPU = 73.989 ms, elapsed = 83.909 ms.
Total time required for tran analysis `tran': CPU = 78.988 ms, elapsed = 94.156 ms.
Time accumulated: CPU = 1.03584 s, elapsed = 3.68456 s.
Peak resident memory used = 61.6 Mbytes.


Notice from spectre.
    29 notices suppressed.

finalTimeOP: writing operating point information to rawfile.

Opening the PSF file ../psf/finalTimeOP.info ...
modelParameter: writing model parameter values to rawfile.

Opening the PSF file ../psf/modelParameter.info ...
element: writing instance parameter values to rawfile.

Opening the PSF file ../psf/element.info ...
outputParameter: writing output parameter values to rawfile.

Opening the PSF file ../psf/outputParameter.info ...
designParamVals: writing netlist parameters to rawfile.

Opening the PSFASCII file ../psf/designParamVals.info ...
primitives: writing primitives to rawfile.

Opening the PSFASCII file ../psf/primitives.info.primitives ...
subckts: writing subcircuits to rawfile.

Opening the PSFASCII file ../psf/subckts.info.subckts ...

Warning from spectre.
    WARNING (SPECTRE-16707): Only tran supports psfxl format, result of other analyses will be in psfbin format.


***********************************************
Transient Analysis `tran': time = (0 s -> 6 ns)
***********************************************

Opening the PSFXL file ../psf/tran.tran.tran ...
Important parameter values:
    start = 0 s
    outputstart = 0 s
    stop = 6 ns
    step = 6 ps
    maxstep = 120 ps
    ic = all
    useprevic = no
    skipdc = no
    reltol = 1e-03
    abstol(V) = 1 uV
    abstol(I) = 1 pA
    temp = 27 C
    tnom = 27 C
    tempeffects = all
    errpreset = moderate
    method = traponly
    lteratio = 3.5
    relref = sigglobal
    cmin = 0 F
    gmin = 1 pS


Output and IC/nodeset summary:
                 save   3       (current)
                 save   13      (voltage)

    tran: time = 156.3 ps    (2.61 %), step = 9.998 ps     (167 m%)
    tran: time = 459.6 ps    (7.66 %), step = 12.99 ps     (217 m%)
    tran: time = 758.1 ps    (12.6 %), step = 11.67 ps     (194 m%)

Notice from spectre at time = 955.77 ps during transient analysis `tran'.
    Found trapezoidal ringing on node V1:p.
Notice from spectre at time = 1.01 ns during transient analysis `tran'.
    Found trapezoidal ringing on node V1:p.

    tran: time = 1.053 ns    (17.6 %), step = 10.62 ps     (177 m%)
    tran: time = 1.351 ns    (22.5 %), step = 9.173 ps     (153 m%)
    tran: time = 1.656 ns    (27.6 %), step = 8.276 ps     (138 m%)
    tran: time = 1.952 ns    (32.5 %), step = 65.27 ps     (1.09 %)

Notice from spectre at time = 2.31177 ns during transient analysis `tran'.
    Found trapezoidal ringing on node V1:p.

    tran: time = 2.312 ns    (38.5 %), step = 120 ps          (2 %)

Notice from spectre at time = 2.43177 ns during transient analysis `tran'.
    Found trapezoidal ringing on node V1:p.
Notice from spectre at time = 2.55177 ns during transient analysis `tran'.
    Found trapezoidal ringing on node V1:p.
        Further occurrences of this notice will be suppressed.

    tran: time = 2.552 ns    (42.5 %), step = 120 ps          (2 %)
    tran: time = 2.912 ns    (48.5 %), step = 120 ps          (2 %)
    tran: time = 3.152 ns    (52.5 %), step = 120 ps          (2 %)
    tran: time = 3.512 ns    (58.5 %), step = 120 ps          (2 %)
    tran: time = 3.752 ns    (62.5 %), step = 120 ps          (2 %)
    tran: time = 4.112 ns    (68.5 %), step = 120 ps          (2 %)
    tran: time = 4.352 ns    (72.5 %), step = 120 ps          (2 %)
    tran: time = 4.712 ns    (78.5 %), step = 120 ps          (2 %)
    tran: time = 4.952 ns    (82.5 %), step = 120 ps          (2 %)
    tran: time = 5.312 ns    (88.5 %), step = 120 ps          (2 %)
    tran: time = 5.552 ns    (92.5 %), step = 120 ps          (2 %)
    tran: time = 5.912 ns    (98.5 %), step = 120 ps          (2 %)
Number of accepted tran steps =             219

Notice from spectre during transient analysis `tran'.
    Trapezoidal ringing is detected during tran analysis.
        Please use method=trap for better results and performance.


Maximum value achieved for any signal of each quantity: 
V: V(out) = 840.6 mV
I: I(V0:p) = 32.38 uA
If your circuit contains signals of the same quantity that are vastly different in size (such as high voltage circuitry combined with low voltage control circuitry), you should consider specifying global option `bin_relref=yes'.

~~~~~~~~~~~~~~~~~~~~~~~~~~~~~~~~~
Post-Transient Simulation Summary
~~~~~~~~~~~~~~~~~~~~~~~~~~~~~~~~~
   -   To further speed up simulation, consider
          add ++aps on command line
~~~~~~~~~~~~~~~~~~~~~~~~~~~~~~~~~


During simulation, the CPU load for active processors is :
        Spectre  0 (12.7 %)      1 (23.4 %)      2 (8.5 %)       3 (5.6 %)
                 4 (4.9 %)       5 (1.2 %)       6 (87.8 %)      7 (21.1 %)
                 8 (20.9 %)      9 (7.5 %)      10 (3.2 %)      11 (3.6 %)
                12 (13.8 %)     13 (15.2 %)     14 (14.7 %)     15 (11.6 %)
                16 (9.5 %)      17 (4.3 %)      18 (3.8 %)      19 (13.2 %)
                20 (16.1 %)     21 (9.2 %)      22 (5.3 %)      23 (40.2 %)
        Other   
Initial condition solution time: CPU = 2 ms, elapsed = 2.42305 ms.
Intrinsic tran analysis time:    CPU = 70.989 ms, elapsed = 79.4809 ms.
Total time required for tran analysis `tran': CPU = 75.989 ms, elapsed = 89.8449 ms.
Time accumulated: CPU = 1.15582 s, elapsed = 4.19081 s.
Peak resident memory used = 62.1 Mbytes.


Notice from spectre.
    29 notices suppressed.

finalTimeOP: writing operating point information to rawfile.

Opening the PSF file ../psf/finalTimeOP.info ...
modelParameter: writing model parameter values to rawfile.

Opening the PSF file ../psf/modelParameter.info ...
element: writing instance parameter values to rawfile.

Opening the PSF file ../psf/element.info ...
outputParameter: writing output parameter values to rawfile.

Opening the PSF file ../psf/outputParameter.info ...
designParamVals: writing netlist parameters to rawfile.

Opening the PSFASCII file ../psf/designParamVals.info ...
primitives: writing primitives to rawfile.

Opening the PSFASCII file ../psf/primitives.info.primitives ...
subckts: writing subcircuits to rawfile.

Opening the PSFASCII file ../psf/subckts.info.subckts ...

Warning from spectre.
    WARNING (SPECTRE-16707): Only tran supports psfxl format, result of other analyses will be in psfbin format.


***********************************************
Transient Analysis `tran': time = (0 s -> 6 ns)
***********************************************

Opening the PSFXL file ../psf/tran.tran.tran ...
Important parameter values:
    start = 0 s
    outputstart = 0 s
    stop = 6 ns
    step = 6 ps
    maxstep = 120 ps
    ic = all
    useprevic = no
    skipdc = no
    reltol = 1e-03
    abstol(V) = 1 uV
    abstol(I) = 1 pA
    temp = 27 C
    tnom = 27 C
    tempeffects = all
    errpreset = moderate
    method = traponly
    lteratio = 3.5
    relref = sigglobal
    cmin = 0 F
    gmin = 1 pS


Output and IC/nodeset summary:
                 save   3       (current)
                 save   13      (voltage)

    tran: time = 150.7 ps    (2.51 %), step = 10.16 ps     (169 m%)
    tran: time = 454.4 ps    (7.57 %), step = 8.822 ps     (147 m%)
    tran: time = 759.7 ps    (12.7 %), step = 24.87 ps     (414 m%)

Notice from spectre at time = 861.76 ps during transient analysis `tran'.
    Found trapezoidal ringing on node V1:p.
Notice from spectre at time = 935.88 ps during transient analysis `tran'.
    Found trapezoidal ringing on node V1:p.
Notice from spectre at time = 1.01 ns during transient analysis `tran'.
    Found trapezoidal ringing on node V1:p.

    tran: time = 1.061 ns    (17.7 %), step = 11.37 ps     (189 m%)
    tran: time = 1.355 ns    (22.6 %), step = 8.88 ps      (148 m%)
    tran: time = 1.657 ns    (27.6 %), step = 6.859 ps     (114 m%)

Notice from spectre at time = 1.92382 ns during transient analysis `tran'.
    Found trapezoidal ringing on node V1:p.
Notice from spectre at time = 2.04382 ns during transient analysis `tran'.
    Found trapezoidal ringing on node V1:p.
        Further occurrences of this notice will be suppressed.

    tran: time = 2.044 ns    (34.1 %), step = 120 ps          (2 %)
    tran: time = 2.284 ns    (38.1 %), step = 120 ps          (2 %)
    tran: time = 2.644 ns    (44.1 %), step = 120 ps          (2 %)
    tran: time = 2.884 ns    (48.1 %), step = 120 ps          (2 %)
    tran: time = 3.244 ns    (54.1 %), step = 120 ps          (2 %)
    tran: time = 3.484 ns    (58.1 %), step = 120 ps          (2 %)
    tran: time = 3.844 ns    (64.1 %), step = 120 ps          (2 %)
    tran: time = 4.084 ns    (68.1 %), step = 120 ps          (2 %)
    tran: time = 4.444 ns    (74.1 %), step = 120 ps          (2 %)
    tran: time = 4.684 ns    (78.1 %), step = 120 ps          (2 %)
    tran: time = 5.044 ns    (84.1 %), step = 120 ps          (2 %)
    tran: time = 5.284 ns    (88.1 %), step = 120 ps          (2 %)
    tran: time = 5.644 ns    (94.1 %), step = 120 ps          (2 %)
    tran: time = 5.884 ns    (98.1 %), step = 120 ps          (2 %)
Number of accepted tran steps =             220

Notice from spectre during transient analysis `tran'.
    Trapezoidal ringing is detected during tran analysis.
        Please use method=trap for better results and performance.


Maximum value achieved for any signal of each quantity: 
V: V(out) = 854 mV
I: I(V0:p) = 33.78 uA
If your circuit contains signals of the same quantity that are vastly different in size (such as high voltage circuitry combined with low voltage control circuitry), you should consider specifying global option `bin_relref=yes'.

~~~~~~~~~~~~~~~~~~~~~~~~~~~~~~~~~
Post-Transient Simulation Summary
~~~~~~~~~~~~~~~~~~~~~~~~~~~~~~~~~
   -   To further speed up simulation, consider
          add ++aps on command line
~~~~~~~~~~~~~~~~~~~~~~~~~~~~~~~~~


During simulation, the CPU load for active processors is :
        Spectre  0 (12.4 %)      1 (22.0 %)      2 (8.3 %)       3 (5.7 %)
                 4 (4.6 %)       5 (1.5 %)       6 (84.0 %)      7 (22.6 %)
                 8 (20.1 %)      9 (7.4 %)      10 (5.2 %)      11 (10.2 %)
                12 (15.0 %)     13 (16.6 %)     14 (16.8 %)     15 (12.0 %)
                16 (10.2 %)     17 (4.5 %)      18 (4.3 %)      19 (13.6 %)
                20 (18.0 %)     21 (10.2 %)     22 (6.3 %)      23 (40.4 %)
        Other   
Initial condition solution time: CPU = 2.999 ms, elapsed = 1.78981 ms.
Intrinsic tran analysis time:    CPU = 69.99 ms, elapsed = 79.309 ms.
Total time required for tran analysis `tran': CPU = 74.989 ms, elapsed = 88.4302 ms.
Time accumulated: CPU = 1.2788 s, elapsed = 4.66525 s.
Peak resident memory used = 62.5 Mbytes.


Notice from spectre.
    33 notices suppressed.

finalTimeOP: writing operating point information to rawfile.

Opening the PSF file ../psf/finalTimeOP.info ...
modelParameter: writing model parameter values to rawfile.

Opening the PSF file ../psf/modelParameter.info ...
element: writing instance parameter values to rawfile.

Opening the PSF file ../psf/element.info ...
outputParameter: writing output parameter values to rawfile.

Opening the PSF file ../psf/outputParameter.info ...
designParamVals: writing netlist parameters to rawfile.

Opening the PSFASCII file ../psf/designParamVals.info ...
primitives: writing primitives to rawfile.

Opening the PSFASCII file ../psf/primitives.info.primitives ...
subckts: writing subcircuits to rawfile.

Opening the PSFASCII file ../psf/subckts.info.subckts ...

Warning from spectre.
    WARNING (SPECTRE-16707): Only tran supports psfxl format, result of other analyses will be in psfbin format.


***********************************************
Transient Analysis `tran': time = (0 s -> 6 ns)
***********************************************

Opening the PSFXL file ../psf/tran.tran.tran ...
Important parameter values:
    start = 0 s
    outputstart = 0 s
    stop = 6 ns
    step = 6 ps
    maxstep = 120 ps
    ic = all
    useprevic = no
    skipdc = no
    reltol = 1e-03
    abstol(V) = 1 uV
    abstol(I) = 1 pA
    temp = 27 C
    tnom = 27 C
    tempeffects = all
    errpreset = moderate
    method = traponly
    lteratio = 3.5
    relref = sigglobal
    cmin = 0 F
    gmin = 1 pS


Output and IC/nodeset summary:
                 save   3       (current)
                 save   13      (voltage)

    tran: time = 151.6 ps    (2.53 %), step = 7.728 ps     (129 m%)
    tran: time = 457.4 ps    (7.62 %), step = 9.178 ps     (153 m%)
    tran: time = 751.8 ps    (12.5 %), step = 47.83 ps     (797 m%)

Notice from spectre at time = 847.504 ps during transient analysis `tran'.
    Found trapezoidal ringing on node V1:p.
Notice from spectre at time = 928.752 ps during transient analysis `tran'.
    Found trapezoidal ringing on node V1:p.
Notice from spectre at time = 1.01 ns during transient analysis `tran'.
    Found trapezoidal ringing on node V1:p.

    tran: time = 1.058 ns    (17.6 %), step = 10.46 ps     (174 m%)
    tran: time = 1.351 ns    (22.5 %), step = 7.673 ps     (128 m%)
    tran: time = 1.662 ns    (27.7 %), step = 14.86 ps     (248 m%)

Notice from spectre at time = 1.84924 ns during transient analysis `tran'.
    Found trapezoidal ringing on node V1:p.
Notice from spectre at time = 1.96924 ns during transient analysis `tran'.
    Found trapezoidal ringing on node V1:p.
        Further occurrences of this notice will be suppressed.

    tran: time = 1.969 ns    (32.8 %), step = 120 ps          (2 %)
    tran: time = 2.329 ns    (38.8 %), step = 120 ps          (2 %)
    tran: time = 2.569 ns    (42.8 %), step = 120 ps          (2 %)
    tran: time = 2.929 ns    (48.8 %), step = 120 ps          (2 %)
    tran: time = 3.169 ns    (52.8 %), step = 120 ps          (2 %)
    tran: time = 3.529 ns    (58.8 %), step = 120 ps          (2 %)
    tran: time = 3.769 ns    (62.8 %), step = 120 ps          (2 %)
    tran: time = 4.129 ns    (68.8 %), step = 120 ps          (2 %)
    tran: time = 4.369 ns    (72.8 %), step = 120 ps          (2 %)
    tran: time = 4.729 ns    (78.8 %), step = 120 ps          (2 %)
    tran: time = 4.969 ns    (82.8 %), step = 120 ps          (2 %)
    tran: time = 5.329 ns    (88.8 %), step = 120 ps          (2 %)
    tran: time = 5.569 ns    (92.8 %), step = 120 ps          (2 %)
    tran: time = 5.905 ns    (98.4 %), step = 95.38 ps     (1.59 %)
Number of accepted tran steps =             221

Notice from spectre during transient analysis `tran'.
    Trapezoidal ringing is detected during tran analysis.
        Please use method=trap for better results and performance.


Maximum value achieved for any signal of each quantity: 
V: V(out) = 865.8 mV
I: I(V0:p) = 34.57 uA
If your circuit contains signals of the same quantity that are vastly different in size (such as high voltage circuitry combined with low voltage control circuitry), you should consider specifying global option `bin_relref=yes'.

~~~~~~~~~~~~~~~~~~~~~~~~~~~~~~~~~
Post-Transient Simulation Summary
~~~~~~~~~~~~~~~~~~~~~~~~~~~~~~~~~
   -   To further speed up simulation, consider
          add ++aps on command line
~~~~~~~~~~~~~~~~~~~~~~~~~~~~~~~~~


During simulation, the CPU load for active processors is :
        Spectre  0 (12.5 %)      1 (20.7 %)      2 (8.1 %)       3 (5.9 %)
                 4 (4.9 %)       5 (1.6 %)       6 (78.8 %)      7 (23.0 %)
                 8 (20.6 %)      9 (7.5 %)      10 (14.2 %)     11 (10.2 %)
                12 (15.2 %)     13 (18.8 %)     14 (16.2 %)     15 (13.0 %)
                16 (9.6 %)      17 (4.5 %)      18 (4.5 %)      19 (15.0 %)
                20 (17.5 %)     21 (10.4 %)     22 (5.7 %)      23 (40.9 %)
        Other   
Initial condition solution time: CPU = 2.999 ms, elapsed = 2.48718 ms.
Intrinsic tran analysis time:    CPU = 69.99 ms, elapsed = 79.5412 ms.
Total time required for tran analysis `tran': CPU = 74.989 ms, elapsed = 90.2109 ms.
Time accumulated: CPU = 1.39879 s, elapsed = 5.14994 s.
Peak resident memory used = 63 Mbytes.


Notice from spectre.
    34 notices suppressed.

finalTimeOP: writing operating point information to rawfile.

Opening the PSF file ../psf/finalTimeOP.info ...
modelParameter: writing model parameter values to rawfile.

Opening the PSF file ../psf/modelParameter.info ...
element: writing instance parameter values to rawfile.

Opening the PSF file ../psf/element.info ...
outputParameter: writing output parameter values to rawfile.

Opening the PSF file ../psf/outputParameter.info ...
designParamVals: writing netlist parameters to rawfile.

Opening the PSFASCII file ../psf/designParamVals.info ...
primitives: writing primitives to rawfile.

Opening the PSFASCII file ../psf/primitives.info.primitives ...
subckts: writing subcircuits to rawfile.

Opening the PSFASCII file ../psf/subckts.info.subckts ...

Warning from spectre.
    WARNING (SPECTRE-16707): Only tran supports psfxl format, result of other analyses will be in psfbin format.


***********************************************
Transient Analysis `tran': time = (0 s -> 6 ns)
***********************************************

Opening the PSFXL file ../psf/tran.tran.tran ...
Important parameter values:
    start = 0 s
    outputstart = 0 s
    stop = 6 ns
    step = 6 ps
    maxstep = 120 ps
    ic = all
    useprevic = no
    skipdc = no
    reltol = 1e-03
    abstol(V) = 1 uV
    abstol(I) = 1 pA
    temp = 27 C
    tnom = 27 C
    tempeffects = all
    errpreset = moderate
    method = traponly
    lteratio = 3.5
    relref = sigglobal
    cmin = 0 F
    gmin = 1 pS


Output and IC/nodeset summary:
                 save   3       (current)
                 save   13      (voltage)

    tran: time = 155 ps      (2.58 %), step = 9.56 ps      (159 m%)
    tran: time = 454 ps      (7.57 %), step = 7.395 ps     (123 m%)
    tran: time = 755.1 ps    (12.6 %), step = 79.71 ps     (1.33 %)

Notice from spectre at time = 875.093 ps during transient analysis `tran'.
    Found trapezoidal ringing on node V1:p.
Notice from spectre at time = 942.546 ps during transient analysis `tran'.
    Found trapezoidal ringing on node V1:p.
Notice from spectre at time = 1.01 ns during transient analysis `tran'.
    Found trapezoidal ringing on node V1:p.

    tran: time = 1.054 ns    (17.6 %), step = 8.914 ps     (149 m%)
    tran: time = 1.357 ns    (22.6 %), step = 7.475 ps     (125 m%)
    tran: time = 1.659 ns    (27.7 %), step = 29.91 ps     (499 m%)

Notice from spectre at time = 1.82966 ns during transient analysis `tran'.
    Found trapezoidal ringing on node V1:p.
Notice from spectre at time = 1.94966 ns during transient analysis `tran'.
    Found trapezoidal ringing on node V1:p.
        Further occurrences of this notice will be suppressed.

    tran: time = 2.07 ns     (34.5 %), step = 120 ps          (2 %)
    tran: time = 2.31 ns     (38.5 %), step = 120 ps          (2 %)
    tran: time = 2.67 ns     (44.5 %), step = 120 ps          (2 %)
    tran: time = 2.91 ns     (48.5 %), step = 120 ps          (2 %)
    tran: time = 3.27 ns     (54.5 %), step = 120 ps          (2 %)
    tran: time = 3.51 ns     (58.5 %), step = 120 ps          (2 %)
    tran: time = 3.87 ns     (64.5 %), step = 120 ps          (2 %)
    tran: time = 4.11 ns     (68.5 %), step = 120 ps          (2 %)
    tran: time = 4.47 ns     (74.5 %), step = 120 ps          (2 %)
    tran: time = 4.71 ns     (78.5 %), step = 120 ps          (2 %)
    tran: time = 5.07 ns     (84.5 %), step = 120 ps          (2 %)
    tran: time = 5.31 ns     (88.5 %), step = 120 ps          (2 %)
    tran: time = 5.67 ns     (94.5 %), step = 120 ps          (2 %)
    tran: time = 5.91 ns     (98.5 %), step = 120 ps          (2 %)
Number of accepted tran steps =             223

Notice from spectre during transient analysis `tran'.
    Trapezoidal ringing is detected during tran analysis.
        Please use method=trap for better results and performance.


Maximum value achieved for any signal of each quantity: 
V: V(out) = 877.1 mV
I: I(V0:p) = 33.86 uA
If your circuit contains signals of the same quantity that are vastly different in size (such as high voltage circuitry combined with low voltage control circuitry), you should consider specifying global option `bin_relref=yes'.

~~~~~~~~~~~~~~~~~~~~~~~~~~~~~~~~~
Post-Transient Simulation Summary
~~~~~~~~~~~~~~~~~~~~~~~~~~~~~~~~~
   -   To further speed up simulation, consider
          add ++aps on command line
~~~~~~~~~~~~~~~~~~~~~~~~~~~~~~~~~


During simulation, the CPU load for active processors is :
        Spectre  0 (12.4 %)      1 (20.3 %)      2 (8.2 %)       3 (5.8 %)
                 4 (4.9 %)       5 (2.2 %)       6 (75.7 %)      7 (23.1 %)
                 8 (20.8 %)      9 (7.6 %)      10 (21.3 %)     11 (9.7 %)
                12 (14.7 %)     13 (20.1 %)     14 (17.0 %)     15 (13.4 %)
                16 (10.3 %)     17 (5.0 %)      18 (4.7 %)      19 (16.7 %)
                20 (18.9 %)     21 (10.3 %)     22 (5.4 %)      23 (40.9 %)
        Other   
Initial condition solution time: CPU = 1.999 ms, elapsed = 2.424 ms.
Intrinsic tran analysis time:    CPU = 70.989 ms, elapsed = 81.377 ms.
Total time required for tran analysis `tran': CPU = 75.988 ms, elapsed = 91.347 ms.
Time accumulated: CPU = 1.51977 s, elapsed = 5.60922 s.
Peak resident memory used = 63.5 Mbytes.


Notice from spectre.
    34 notices suppressed.

finalTimeOP: writing operating point information to rawfile.

Opening the PSF file ../psf/finalTimeOP.info ...
modelParameter: writing model parameter values to rawfile.

Opening the PSF file ../psf/modelParameter.info ...
element: writing instance parameter values to rawfile.

Opening the PSF file ../psf/element.info ...
outputParameter: writing output parameter values to rawfile.

Opening the PSF file ../psf/outputParameter.info ...
designParamVals: writing netlist parameters to rawfile.

Opening the PSFASCII file ../psf/designParamVals.info ...
primitives: writing primitives to rawfile.

Opening the PSFASCII file ../psf/primitives.info.primitives ...
subckts: writing subcircuits to rawfile.

Opening the PSFASCII file ../psf/subckts.info.subckts ...

Warning from spectre.
    WARNING (SPECTRE-16707): Only tran supports psfxl format, result of other analyses will be in psfbin format.


***********************************************
Transient Analysis `tran': time = (0 s -> 6 ns)
***********************************************

Opening the PSFXL file ../psf/tran.tran.tran ...
Important parameter values:
    start = 0 s
    outputstart = 0 s
    stop = 6 ns
    step = 6 ps
    maxstep = 120 ps
    ic = all
    useprevic = no
    skipdc = no
    reltol = 1e-03
    abstol(V) = 1 uV
    abstol(I) = 1 pA
    temp = 27 C
    tnom = 27 C
    tempeffects = all
    errpreset = moderate
    method = traponly
    lteratio = 3.5
    relref = sigglobal
    cmin = 0 F
    gmin = 1 pS


Output and IC/nodeset summary:
                 save   3       (current)
                 save   13      (voltage)

    tran: time = 153.2 ps    (2.55 %), step = 8.667 ps     (144 m%)
    tran: time = 453.9 ps    (7.56 %), step = 7.589 ps     (126 m%)

Notice from spectre at time = 796.588 ps during transient analysis `tran'.
    Found trapezoidal ringing on node V1:p.

    tran: time = 796.6 ps    (13.3 %), step = 120 ps          (2 %)

Notice from spectre at time = 916.588 ps during transient analysis `tran'.
    Found trapezoidal ringing on node V1:p.
Notice from spectre at time = 1.01 ns during transient analysis `tran'.
    Found trapezoidal ringing on node V1:p.

    tran: time = 1.055 ns    (17.6 %), step = 7.378 ps     (123 m%)
    tran: time = 1.353 ns    (22.5 %), step = 6.391 ps     (107 m%)

Notice from spectre at time = 1.7182 ns during transient analysis `tran'.
    Found trapezoidal ringing on node V1:p.

    tran: time = 1.718 ns    (28.6 %), step = 82.53 ps     (1.38 %)

Notice from spectre at time = 1.8382 ns during transient analysis `tran'.
    Found trapezoidal ringing on node V1:p.
        Further occurrences of this notice will be suppressed.

    tran: time = 1.958 ns    (32.6 %), step = 120 ps          (2 %)
    tran: time = 2.318 ns    (38.6 %), step = 120 ps          (2 %)
    tran: time = 2.558 ns    (42.6 %), step = 120 ps          (2 %)
    tran: time = 2.918 ns    (48.6 %), step = 120 ps          (2 %)
    tran: time = 3.158 ns    (52.6 %), step = 120 ps          (2 %)
    tran: time = 3.518 ns    (58.6 %), step = 120 ps          (2 %)
    tran: time = 3.758 ns    (62.6 %), step = 120 ps          (2 %)
    tran: time = 4.118 ns    (68.6 %), step = 120 ps          (2 %)
    tran: time = 4.358 ns    (72.6 %), step = 120 ps          (2 %)
    tran: time = 4.718 ns    (78.6 %), step = 120 ps          (2 %)
    tran: time = 4.958 ns    (82.6 %), step = 120 ps          (2 %)
    tran: time = 5.318 ns    (88.6 %), step = 120 ps          (2 %)
    tran: time = 5.558 ns    (92.6 %), step = 120 ps          (2 %)
    tran: time = 5.918 ns    (98.6 %), step = 120 ps          (2 %)
Number of accepted tran steps =             220

Notice from spectre during transient analysis `tran'.
    Trapezoidal ringing is detected during tran analysis.
        Please use method=trap for better results and performance.


Maximum value achieved for any signal of each quantity: 
V: V(out) = 886.1 mV
I: I(V0:p) = 33.71 uA
If your circuit contains signals of the same quantity that are vastly different in size (such as high voltage circuitry combined with low voltage control circuitry), you should consider specifying global option `bin_relref=yes'.

~~~~~~~~~~~~~~~~~~~~~~~~~~~~~~~~~
Post-Transient Simulation Summary
~~~~~~~~~~~~~~~~~~~~~~~~~~~~~~~~~
   -   To further speed up simulation, consider
          add ++aps on command line
~~~~~~~~~~~~~~~~~~~~~~~~~~~~~~~~~


During simulation, the CPU load for active processors is :
        Spectre  0 (12.5 %)      1 (19.7 %)      2 (8.7 %)       3 (5.5 %)
                 4 (4.6 %)       5 (2.2 %)       6 (72.2 %)      7 (22.6 %)
                 8 (20.8 %)      9 (7.3 %)      10 (27.7 %)     11 (9.6 %)
                12 (14.5 %)     13 (20.9 %)     14 (18.0 %)     15 (13.9 %)
                16 (10.9 %)     17 (5.1 %)      18 (7.1 %)      19 (17.0 %)
                20 (18.4 %)     21 (11.6 %)     22 (5.0 %)      23 (41.0 %)
        Other   
Initial condition solution time: CPU = 2 ms, elapsed = 2.4159 ms.
Intrinsic tran analysis time:    CPU = 69.99 ms, elapsed = 79.248 ms.
Total time required for tran analysis `tran': CPU = 74.99 ms, elapsed = 89.2789 ms.
Time accumulated: CPU = 1.63975 s, elapsed = 6.09822 s.
Peak resident memory used = 63.9 Mbytes.


Notice from spectre.
    35 notices suppressed.

finalTimeOP: writing operating point information to rawfile.

Opening the PSF file ../psf/finalTimeOP.info ...
modelParameter: writing model parameter values to rawfile.

Opening the PSF file ../psf/modelParameter.info ...
element: writing instance parameter values to rawfile.

Opening the PSF file ../psf/element.info ...
outputParameter: writing output parameter values to rawfile.

Opening the PSF file ../psf/outputParameter.info ...
designParamVals: writing netlist parameters to rawfile.

Opening the PSFASCII file ../psf/designParamVals.info ...
primitives: writing primitives to rawfile.

Opening the PSFASCII file ../psf/primitives.info.primitives ...
subckts: writing subcircuits to rawfile.

Opening the PSFASCII file ../psf/subckts.info.subckts ...

Warning from spectre.
    WARNING (SPECTRE-16707): Only tran supports psfxl format, result of other analyses will be in psfbin format.


***********************************************
Transient Analysis `tran': time = (0 s -> 6 ns)
***********************************************

Opening the PSFXL file ../psf/tran.tran.tran ...
Important parameter values:
    start = 0 s
    outputstart = 0 s
    stop = 6 ns
    step = 6 ps
    maxstep = 120 ps
    ic = all
    useprevic = no
    skipdc = no
    reltol = 1e-03
    abstol(V) = 1 uV
    abstol(I) = 1 pA
    temp = 27 C
    tnom = 27 C
    tempeffects = all
    errpreset = moderate
    method = traponly
    lteratio = 3.5
    relref = sigglobal
    cmin = 0 F
    gmin = 1 pS


Output and IC/nodeset summary:
                 save   3       (current)
                 save   13      (voltage)

    tran: time = 151.9 ps    (2.53 %), step = 6.276 ps     (105 m%)
    tran: time = 451.5 ps    (7.52 %), step = 5.852 ps    (97.5 m%)

Notice from spectre at time = 636.437 ps during transient analysis `tran'.
    Found trapezoidal ringing on node V1:p.
Notice from spectre at time = 756.437 ps during transient analysis `tran'.
    Found trapezoidal ringing on node V1:p.

    tran: time = 756.4 ps    (12.6 %), step = 120 ps          (2 %)

Notice from spectre at time = 876.437 ps during transient analysis `tran'.
    Found trapezoidal ringing on node V1:p.
Notice from spectre at time = 943.218 ps during transient analysis `tran'.
    Found trapezoidal ringing on node V1:p.
Notice from spectre at time = 1.01 ns during transient analysis `tran'.
    Found trapezoidal ringing on node V1:p.
        Further occurrences of this notice will be suppressed.

    tran: time = 1.05 ns     (17.5 %), step = 7.04 ps      (117 m%)
    tran: time = 1.352 ns    (22.5 %), step = 8.385 ps     (140 m%)
    tran: time = 1.736 ns    (28.9 %), step = 114.4 ps     (1.91 %)
    tran: time = 1.976 ns    (32.9 %), step = 120 ps          (2 %)
    tran: time = 2.336 ns    (38.9 %), step = 120 ps          (2 %)
    tran: time = 2.576 ns    (42.9 %), step = 120 ps          (2 %)
    tran: time = 2.936 ns    (48.9 %), step = 120 ps          (2 %)
    tran: time = 3.176 ns    (52.9 %), step = 120 ps          (2 %)
    tran: time = 3.536 ns    (58.9 %), step = 120 ps          (2 %)
    tran: time = 3.776 ns    (62.9 %), step = 120 ps          (2 %)
    tran: time = 4.136 ns    (68.9 %), step = 120 ps          (2 %)
    tran: time = 4.376 ns    (72.9 %), step = 120 ps          (2 %)
    tran: time = 4.736 ns    (78.9 %), step = 120 ps          (2 %)
    tran: time = 4.976 ns    (82.9 %), step = 120 ps          (2 %)
    tran: time = 5.336 ns    (88.9 %), step = 120 ps          (2 %)
    tran: time = 5.576 ns    (92.9 %), step = 120 ps          (2 %)
    tran: time = 5.908 ns    (98.5 %), step = 92.18 ps     (1.54 %)
Number of accepted tran steps =             222

Notice from spectre during transient analysis `tran'.
    Trapezoidal ringing is detected during tran analysis.
        Please use method=trap for better results and performance.


Maximum value achieved for any signal of each quantity: 
V: V(out) = 894.7 mV
I: I(V0:p) = 34.86 uA
If your circuit contains signals of the same quantity that are vastly different in size (such as high voltage circuitry combined with low voltage control circuitry), you should consider specifying global option `bin_relref=yes'.

~~~~~~~~~~~~~~~~~~~~~~~~~~~~~~~~~
Post-Transient Simulation Summary
~~~~~~~~~~~~~~~~~~~~~~~~~~~~~~~~~
   -   To further speed up simulation, consider
          add ++aps on command line
~~~~~~~~~~~~~~~~~~~~~~~~~~~~~~~~~


During simulation, the CPU load for active processors is :
        Spectre  0 (12.5 %)      1 (19.2 %)      2 (8.8 %)       3 (5.4 %)
                 4 (4.6 %)       5 (2.0 %)       6 (68.3 %)      7 (22.8 %)
                 8 (19.9 %)      9 (7.2 %)      10 (33.3 %)     11 (9.2 %)
                12 (14.5 %)     13 (20.5 %)     14 (18.3 %)     15 (14.6 %)
                16 (10.7 %)     17 (4.7 %)      18 (7.3 %)      19 (17.1 %)
                20 (17.3 %)     21 (11.5 %)     22 (4.6 %)      23 (40.9 %)
        Other   
Initial condition solution time: CPU = 2 ms, elapsed = 2.30193 ms.
Intrinsic tran analysis time:    CPU = 67.989 ms, elapsed = 76.8611 ms.
Total time required for tran analysis `tran': CPU = 72.989 ms, elapsed = 87.2009 ms.
Time accumulated: CPU = 1.75973 s, elapsed = 6.59883 s.
Peak resident memory used = 64.4 Mbytes.


Notice from spectre.
    37 notices suppressed.

finalTimeOP: writing operating point information to rawfile.

Opening the PSF file ../psf/finalTimeOP.info ...
modelParameter: writing model parameter values to rawfile.

Opening the PSF file ../psf/modelParameter.info ...
element: writing instance parameter values to rawfile.

Opening the PSF file ../psf/element.info ...
outputParameter: writing output parameter values to rawfile.

Opening the PSF file ../psf/outputParameter.info ...
designParamVals: writing netlist parameters to rawfile.

Opening the PSFASCII file ../psf/designParamVals.info ...
primitives: writing primitives to rawfile.

Opening the PSFASCII file ../psf/primitives.info.primitives ...
subckts: writing subcircuits to rawfile.

Opening the PSFASCII file ../psf/subckts.info.subckts ...

Warning from spectre.
    WARNING (SPECTRE-16707): Only tran supports psfxl format, result of other analyses will be in psfbin format.


***********************************************
Transient Analysis `tran': time = (0 s -> 6 ns)
***********************************************

Opening the PSFXL file ../psf/tran.tran.tran ...
Important parameter values:
    start = 0 s
    outputstart = 0 s
    stop = 6 ns
    step = 6 ps
    maxstep = 120 ps
    ic = all
    useprevic = no
    skipdc = no
    reltol = 1e-03
    abstol(V) = 1 uV
[...]
    tran: time = 839 ps        (14 %), step = 120 ps          (2 %)
    tran: time = 1.051 ns    (17.5 %), step = 1.811 ps    (30.2 m%)
    tran: time = 1.375 ns    (22.9 %), step = 120 ps          (2 %)
    tran: time = 1.735 ns    (28.9 %), step = 120 ps          (2 %)
    tran: time = 1.975 ns    (32.9 %), step = 120 ps          (2 %)
    tran: time = 2.335 ns    (38.9 %), step = 120 ps          (2 %)
    tran: time = 2.575 ns    (42.9 %), step = 120 ps          (2 %)
    tran: time = 2.935 ns    (48.9 %), step = 120 ps          (2 %)
    tran: time = 3.175 ns    (52.9 %), step = 120 ps          (2 %)
    tran: time = 3.535 ns    (58.9 %), step = 120 ps          (2 %)
    tran: time = 3.775 ns    (62.9 %), step = 120 ps          (2 %)
    tran: time = 4.135 ns    (68.9 %), step = 120 ps          (2 %)
    tran: time = 4.375 ns    (72.9 %), step = 120 ps          (2 %)
    tran: time = 4.735 ns    (78.9 %), step = 120 ps          (2 %)
    tran: time = 4.975 ns    (82.9 %), step = 120 ps          (2 %)
    tran: time = 5.335 ns    (88.9 %), step = 120 ps          (2 %)
    tran: time = 5.575 ns    (92.9 %), step = 120 ps          (2 %)
    tran: time = 5.908 ns    (98.5 %), step = 92.46 ps     (1.54 %)
Number of accepted tran steps =             210

Notice from spectre during transient analysis `tran'.
    Trapezoidal ringing is detected during tran analysis.
        Please use method=trap for better results and performance.


Maximum value achieved for any signal of each quantity: 
V: V(out) = 1.293 V
I: I(V1:p) = 84.91 uA
If your circuit contains signals of the same quantity that are vastly different in size (such as high voltage circuitry combined with low voltage control circuitry), you should consider specifying global option `bin_relref=yes'.

~~~~~~~~~~~~~~~~~~~~~~~~~~~~~~~~~
Post-Transient Simulation Summary
~~~~~~~~~~~~~~~~~~~~~~~~~~~~~~~~~
   -   To further speed up simulation, consider
          add ++aps on command line
~~~~~~~~~~~~~~~~~~~~~~~~~~~~~~~~~


During simulation, the CPU load for active processors is :
        Spectre  0 (14.4 %)      1 (14.1 %)      2 (8.1 %)       3 (5.2 %)
                 4 (4.0 %)       5 (2.5 %)       6 (61.3 %)      7 (31.2 %)
                 8 (17.4 %)      9 (7.4 %)      10 (34.7 %)     11 (5.6 %)
                12 (11.7 %)     13 (23.3 %)     14 (17.7 %)     15 (12.4 %)
                16 (7.1 %)      17 (4.2 %)      18 (5.4 %)      19 (12.6 %)
                20 (19.6 %)     21 (10.9 %)     22 (5.5 %)      23 (40.4 %)
        Other   
Initial condition solution time: CPU = 2 ms, elapsed = 1.91402 ms.
Intrinsic tran analysis time:    CPU = 65.991 ms, elapsed = 74.882 ms.
Total time required for tran analysis `tran': CPU = 69.99 ms, elapsed = 84.444 ms.
Time accumulated: CPU = 6.98594 s, elapsed = 28.0451 s.
Peak resident memory used = 84.7 Mbytes.


Notice from spectre.
    47 notices suppressed.

finalTimeOP: writing operating point information to rawfile.

Opening the PSF file ../psf/finalTimeOP.info ...
modelParameter: writing model parameter values to rawfile.

Opening the PSF file ../psf/modelParameter.info ...
element: writing instance parameter values to rawfile.

Opening the PSF file ../psf/element.info ...
outputParameter: writing output parameter values to rawfile.

Opening the PSF file ../psf/outputParameter.info ...
designParamVals: writing netlist parameters to rawfile.

Opening the PSFASCII file ../psf/designParamVals.info ...
primitives: writing primitives to rawfile.

Opening the PSFASCII file ../psf/primitives.info.primitives ...
subckts: writing subcircuits to rawfile.

Opening the PSFASCII file ../psf/subckts.info.subckts ...

Warning from spectre.
    WARNING (SPECTRE-16707): Only tran supports psfxl format, result of other analyses will be in psfbin format.


***********************************************
Transient Analysis `tran': time = (0 s -> 6 ns)
***********************************************

Opening the PSFXL file ../psf/tran.tran.tran ...
Important parameter values:
    start = 0 s
    outputstart = 0 s
    stop = 6 ns
    step = 6 ps
    maxstep = 120 ps
    ic = all
    useprevic = no
    skipdc = no
    reltol = 1e-03
    abstol(V) = 1 uV
    abstol(I) = 1 pA
    temp = 27 C
    tnom = 27 C
    tempeffects = all
    errpreset = moderate
    method = traponly
    lteratio = 3.5
    relref = sigglobal
    cmin = 0 F
    gmin = 1 pS


Output and IC/nodeset summary:
                 save   3       (current)
                 save   13      (voltage)


Notice from spectre at time = 154.095 ps during transient analysis `tran'.
    Found trapezoidal ringing on node V1:p.

    tran: time = 154.1 ps    (2.57 %), step = 19.26 ps     (321 m%)

Notice from spectre at time = 192.609 ps during transient analysis `tran'.
    Found trapezoidal ringing on node V1:p.
Notice from spectre at time = 252.78 ps during transient analysis `tran'.
    Found trapezoidal ringing on node V1:p.
Notice from spectre at time = 343.766 ps during transient analysis `tran'.
    Found trapezoidal ringing on node V1:p.
Notice from spectre at time = 463.766 ps during transient analysis `tran'.
    Found trapezoidal ringing on node V1:p.
        Further occurrences of this notice will be suppressed.

    tran: time = 463.8 ps    (7.73 %), step = 120 ps          (2 %)
    tran: time = 823.8 ps    (13.7 %), step = 120 ps          (2 %)
    tran: time = 1.051 ns    (17.5 %), step = 1.808 ps    (30.1 m%)
    tran: time = 1.399 ns    (23.3 %), step = 120 ps          (2 %)
    tran: time = 1.759 ns    (29.3 %), step = 120 ps          (2 %)
    tran: time = 1.999 ns    (33.3 %), step = 120 ps          (2 %)
    tran: time = 2.359 ns    (39.3 %), step = 120 ps          (2 %)
    tran: time = 2.599 ns    (43.3 %), step = 120 ps          (2 %)
    tran: time = 2.959 ns    (49.3 %), step = 120 ps          (2 %)
    tran: time = 3.199 ns    (53.3 %), step = 120 ps          (2 %)
    tran: time = 3.559 ns    (59.3 %), step = 120 ps          (2 %)
    tran: time = 3.799 ns    (63.3 %), step = 120 ps          (2 %)
    tran: time = 4.159 ns    (69.3 %), step = 120 ps          (2 %)
    tran: time = 4.399 ns    (73.3 %), step = 120 ps          (2 %)
    tran: time = 4.759 ns    (79.3 %), step = 120 ps          (2 %)
    tran: time = 4.999 ns    (83.3 %), step = 120 ps          (2 %)
    tran: time = 5.359 ns    (89.3 %), step = 120 ps          (2 %)
    tran: time = 5.599 ns    (93.3 %), step = 120 ps          (2 %)
    tran: time = 5.92 ns     (98.7 %), step = 80.47 ps     (1.34 %)
Number of accepted tran steps =             210

Notice from spectre during transient analysis `tran'.
    Trapezoidal ringing is detected during tran analysis.
        Please use method=trap for better results and performance.


Maximum value achieved for any signal of each quantity: 
V: V(out) = 1.305 V
I: I(V1:p) = 86.4 uA
If your circuit contains signals of the same quantity that are vastly different in size (such as high voltage circuitry combined with low voltage control circuitry), you should consider specifying global option `bin_relref=yes'.

~~~~~~~~~~~~~~~~~~~~~~~~~~~~~~~~~
Post-Transient Simulation Summary
~~~~~~~~~~~~~~~~~~~~~~~~~~~~~~~~~
   -   To further speed up simulation, consider
          add ++aps on command line
~~~~~~~~~~~~~~~~~~~~~~~~~~~~~~~~~


During simulation, the CPU load for active processors is :
        Spectre  0 (14.5 %)      1 (14.0 %)      2 (8.1 %)       3 (5.3 %)
                 4 (3.9 %)       5 (2.6 %)       6 (60.6 %)      7 (31.0 %)
                 8 (17.3 %)      9 (7.4 %)      10 (35.8 %)     11 (5.6 %)
                12 (11.7 %)     13 (23.8 %)     14 (17.7 %)     15 (12.3 %)
                16 (7.0 %)      17 (4.2 %)      18 (5.5 %)      19 (12.6 %)
                20 (19.4 %)     21 (11.2 %)     22 (5.4 %)      23 (40.5 %)
        Other   
Initial condition solution time: CPU = 2 ms, elapsed = 2.05278 ms.
Intrinsic tran analysis time:    CPU = 66.99 ms, elapsed = 76.5312 ms.
Total time required for tran analysis `tran': CPU = 71.99 ms, elapsed = 87.3449 ms.
Time accumulated: CPU = 7.10192 s, elapsed = 28.5205 s.
Peak resident memory used = 85.2 Mbytes.


Notice from spectre.
    47 notices suppressed.

finalTimeOP: writing operating point information to rawfile.

Opening the PSF file ../psf/finalTimeOP.info ...
modelParameter: writing model parameter values to rawfile.

Opening the PSF file ../psf/modelParameter.info ...
element: writing instance parameter values to rawfile.

Opening the PSF file ../psf/element.info ...
outputParameter: writing output parameter values to rawfile.

Opening the PSF file ../psf/outputParameter.info ...
designParamVals: writing netlist parameters to rawfile.

Opening the PSFASCII file ../psf/designParamVals.info ...
primitives: writing primitives to rawfile.

Opening the PSFASCII file ../psf/primitives.info.primitives ...
subckts: writing subcircuits to rawfile.

Opening the PSFASCII file ../psf/subckts.info.subckts ...

Warning from spectre.
    WARNING (SPECTRE-16707): Only tran supports psfxl format, result of other analyses will be in psfbin format.


***********************************************
Transient Analysis `tran': time = (0 s -> 6 ns)
***********************************************

Opening the PSFXL file ../psf/tran.tran.tran ...
Important parameter values:
    start = 0 s
    outputstart = 0 s
    stop = 6 ns
    step = 6 ps
    maxstep = 120 ps
    ic = all
    useprevic = no
    skipdc = no
    reltol = 1e-03
    abstol(V) = 1 uV
    abstol(I) = 1 pA
    temp = 27 C
    tnom = 27 C
    tempeffects = all
    errpreset = moderate
    method = traponly
    lteratio = 3.5
    relref = sigglobal
    cmin = 0 F
    gmin = 1 pS


Output and IC/nodeset summary:
                 save   3       (current)
                 save   13      (voltage)


Notice from spectre at time = 161.882 ps during transient analysis `tran'.
    Found trapezoidal ringing on node V1:p.

    tran: time = 161.9 ps     (2.7 %), step = 24.03 ps     (401 m%)

Notice from spectre at time = 209.948 ps during transient analysis `tran'.
    Found trapezoidal ringing on node V1:p.
Notice from spectre at time = 302.909 ps during transient analysis `tran'.
    Found trapezoidal ringing on node V1:p.
Notice from spectre at time = 422.909 ps during transient analysis `tran'.
    Found trapezoidal ringing on node V1:p.
Notice from spectre at time = 542.909 ps during transient analysis `tran'.
    Found trapezoidal ringing on node V1:p.
        Further occurrences of this notice will be suppressed.

    tran: time = 542.9 ps    (9.05 %), step = 120 ps          (2 %)
    tran: time = 782.9 ps      (13 %), step = 120 ps          (2 %)
    tran: time = 1.051 ns    (17.5 %), step = 1.801 ps      (30 m%)
    tran: time = 1.41 ns     (23.5 %), step = 120 ps          (2 %)
    tran: time = 1.65 ns     (27.5 %), step = 120 ps          (2 %)
    tran: time = 2.01 ns     (33.5 %), step = 120 ps          (2 %)
    tran: time = 2.25 ns     (37.5 %), step = 120 ps          (2 %)
    tran: time = 2.61 ns     (43.5 %), step = 120 ps          (2 %)
    tran: time = 2.85 ns     (47.5 %), step = 120 ps          (2 %)
    tran: time = 3.21 ns     (53.5 %), step = 120 ps          (2 %)
    tran: time = 3.45 ns     (57.5 %), step = 120 ps          (2 %)
    tran: time = 3.81 ns     (63.5 %), step = 120 ps          (2 %)
    tran: time = 4.05 ns     (67.5 %), step = 120 ps          (2 %)
    tran: time = 4.41 ns     (73.5 %), step = 120 ps          (2 %)
    tran: time = 4.65 ns     (77.5 %), step = 120 ps          (2 %)
    tran: time = 5.01 ns     (83.5 %), step = 120 ps          (2 %)
    tran: time = 5.25 ns     (87.5 %), step = 120 ps          (2 %)
    tran: time = 5.61 ns     (93.5 %), step = 120 ps          (2 %)
    tran: time = 5.85 ns     (97.5 %), step = 120 ps          (2 %)
Number of accepted tran steps =             209

Notice from spectre during transient analysis `tran'.
    Trapezoidal ringing is detected during tran analysis.
        Please use method=trap for better results and performance.


Maximum value achieved for any signal of each quantity: 
V: V(out) = 1.314 V
I: I(V1:p) = 87.85 uA
If your circuit contains signals of the same quantity that are vastly different in size (such as high voltage circuitry combined with low voltage control circuitry), you should consider specifying global option `bin_relref=yes'.

~~~~~~~~~~~~~~~~~~~~~~~~~~~~~~~~~
Post-Transient Simulation Summary
~~~~~~~~~~~~~~~~~~~~~~~~~~~~~~~~~
   -   To further speed up simulation, consider
          add ++aps on command line
~~~~~~~~~~~~~~~~~~~~~~~~~~~~~~~~~


During simulation, the CPU load for active processors is :
        Spectre  0 (14.4 %)      1 (13.9 %)      2 (8.0 %)       3 (5.2 %)
                 4 (3.9 %)       5 (2.6 %)       6 (60.0 %)      7 (30.7 %)
                 8 (17.2 %)      9 (7.4 %)      10 (36.9 %)     11 (5.6 %)
                12 (11.7 %)     13 (24.1 %)     14 (17.8 %)     15 (12.1 %)
                16 (7.0 %)      17 (4.1 %)      18 (5.7 %)      19 (12.4 %)
                20 (19.4 %)     21 (11.2 %)     22 (5.3 %)      23 (40.5 %)
        Other   
Initial condition solution time: CPU = 1 ms, elapsed = 2.03705 ms.
Intrinsic tran analysis time:    CPU = 66.99 ms, elapsed = 75.901 ms.
Total time required for tran analysis `tran': CPU = 70.989 ms, elapsed = 85.8889 ms.
Time accumulated: CPU = 7.2189 s, elapsed = 29.013 s.
Peak resident memory used = 85.7 Mbytes.


Notice from spectre.
    47 notices suppressed.

finalTimeOP: writing operating point information to rawfile.

Opening the PSF file ../psf/finalTimeOP.info ...
modelParameter: writing model parameter values to rawfile.

Opening the PSF file ../psf/modelParameter.info ...
element: writing instance parameter values to rawfile.

Opening the PSF file ../psf/element.info ...
outputParameter: writing output parameter values to rawfile.

Opening the PSF file ../psf/outputParameter.info ...
designParamVals: writing netlist parameters to rawfile.

Opening the PSFASCII file ../psf/designParamVals.info ...
primitives: writing primitives to rawfile.

Opening the PSFASCII file ../psf/primitives.info.primitives ...
subckts: writing subcircuits to rawfile.

Opening the PSFASCII file ../psf/subckts.info.subckts ...

Warning from spectre.
    WARNING (SPECTRE-16707): Only tran supports psfxl format, result of other analyses will be in psfbin format.


***********************************************
Transient Analysis `tran': time = (0 s -> 6 ns)
***********************************************

Opening the PSFXL file ../psf/tran.tran.tran ...
Important parameter values:
    start = 0 s
    outputstart = 0 s
    stop = 6 ns
    step = 6 ps
    maxstep = 120 ps
    ic = all
    useprevic = no
    skipdc = no
    reltol = 1e-03
    abstol(V) = 1 uV
    abstol(I) = 1 pA
    temp = 27 C
    tnom = 27 C
    tempeffects = all
    errpreset = moderate
    method = traponly
    lteratio = 3.5
    relref = sigglobal
    cmin = 0 F
    gmin = 1 pS


Output and IC/nodeset summary:
                 save   3       (current)
                 save   13      (voltage)


Notice from spectre at time = 175.362 ps during transient analysis `tran'.
    Found trapezoidal ringing on node V1:p.

    tran: time = 175.4 ps    (2.92 %), step = 31.33 ps     (522 m%)

Notice from spectre at time = 238.017 ps during transient analysis `tran'.
    Found trapezoidal ringing on node V1:p.
Notice from spectre at time = 358.017 ps during transient analysis `tran'.
    Found trapezoidal ringing on node V1:p.
Notice from spectre at time = 478.017 ps during transient analysis `tran'.
    Found trapezoidal ringing on node V1:p.

    tran: time = 478 ps      (7.97 %), step = 120 ps          (2 %)

Notice from spectre at time = 598.017 ps during transient analysis `tran'.
    Found trapezoidal ringing on node V1:p.
        Further occurrences of this notice will be suppressed.

    tran: time = 838 ps        (14 %), step = 120 ps          (2 %)
    tran: time = 1.05 ns     (17.5 %), step = 1.765 ps    (29.4 m%)
    tran: time = 1.384 ns    (23.1 %), step = 118.9 ps     (1.98 %)
    tran: time = 1.744 ns    (29.1 %), step = 120 ps          (2 %)
    tran: time = 1.984 ns    (33.1 %), step = 120 ps          (2 %)
    tran: time = 2.344 ns    (39.1 %), step = 120 ps          (2 %)
    tran: time = 2.584 ns    (43.1 %), step = 120 ps          (2 %)
    tran: time = 2.944 ns    (49.1 %), step = 120 ps          (2 %)
    tran: time = 3.184 ns    (53.1 %), step = 120 ps          (2 %)
    tran: time = 3.544 ns    (59.1 %), step = 120 ps          (2 %)
    tran: time = 3.784 ns    (63.1 %), step = 120 ps          (2 %)
    tran: time = 4.144 ns    (69.1 %), step = 120 ps          (2 %)
    tran: time = 4.384 ns    (73.1 %), step = 120 ps          (2 %)
    tran: time = 4.744 ns    (79.1 %), step = 120 ps          (2 %)
    tran: time = 4.984 ns    (83.1 %), step = 120 ps          (2 %)
    tran: time = 5.344 ns    (89.1 %), step = 120 ps          (2 %)
    tran: time = 5.584 ns    (93.1 %), step = 120 ps          (2 %)
    tran: time = 5.912 ns    (98.5 %), step = 87.86 ps     (1.46 %)
Number of accepted tran steps =             209

Notice from spectre during transient analysis `tran'.
    Trapezoidal ringing is detected during tran analysis.
        Please use method=trap for better results and performance.


Maximum value achieved for any signal of each quantity: 
V: V(out) = 1.321 V
I: I(V1:p) = 89.39 uA
If your circuit contains signals of the same quantity that are vastly different in size (such as high voltage circuitry combined with low voltage control circuitry), you should consider specifying global option `bin_relref=yes'.

~~~~~~~~~~~~~~~~~~~~~~~~~~~~~~~~~
Post-Transient Simulation Summary
~~~~~~~~~~~~~~~~~~~~~~~~~~~~~~~~~
   -   To further speed up simulation, consider
          add ++aps on command line
~~~~~~~~~~~~~~~~~~~~~~~~~~~~~~~~~


During simulation, the CPU load for active processors is :
        Spectre  0 (14.5 %)      1 (13.9 %)      2 (8.0 %)       3 (5.2 %)
                 4 (3.9 %)       5 (2.6 %)       6 (59.3 %)      7 (30.4 %)
                 8 (17.0 %)      9 (7.3 %)      10 (38.0 %)     11 (5.7 %)
                12 (11.7 %)     13 (24.2 %)     14 (17.7 %)     15 (12.0 %)
                16 (7.0 %)      17 (4.1 %)      18 (5.7 %)      19 (12.4 %)
                20 (19.8 %)     21 (11.3 %)     22 (5.3 %)      23 (40.5 %)
        Other   
Initial condition solution time: CPU = 2 ms, elapsed = 2.03609 ms.
Intrinsic tran analysis time:    CPU = 66.99 ms, elapsed = 75.166 ms.
Total time required for tran analysis `tran': CPU = 71.989 ms, elapsed = 85.371 ms.
Time accumulated: CPU = 7.33588 s, elapsed = 29.4917 s.
Peak resident memory used = 86.1 Mbytes.


Notice from spectre.
    46 notices suppressed.

finalTimeOP: writing operating point information to rawfile.

Opening the PSF file ../psf/finalTimeOP.info ...
modelParameter: writing model parameter values to rawfile.

Opening the PSF file ../psf/modelParameter.info ...
element: writing instance parameter values to rawfile.

Opening the PSF file ../psf/element.info ...
outputParameter: writing output parameter values to rawfile.

Opening the PSF file ../psf/outputParameter.info ...
designParamVals: writing netlist parameters to rawfile.

Opening the PSFASCII file ../psf/designParamVals.info ...
primitives: writing primitives to rawfile.

Opening the PSFASCII file ../psf/primitives.info.primitives ...
subckts: writing subcircuits to rawfile.

Opening the PSFASCII file ../psf/subckts.info.subckts ...

Aggregate audit (6:51:25 PM, Thur Mar 8, 2018):
Time used: CPU = 7.38 s, elapsed = 33.4 s, util. = 22.1%.
Time spent in licensing: elapsed = 16.6 ms.
Peak memory used = 86.9 Mbytes.
Simulation started at: 6:50:52 PM, Thur Mar 8, 2018, ended at: 6:51:25 PM, Thur Mar 8, 2018, with elapsed time (wall clock): 33.4 s.
spectre completes with 0 errors, 61 warnings, and 428 notices.
