Spectre (R) Circuit Simulator
Version 16.1.0.479.isr9 64bit -- 7 Sep 2017
Simulating `input.scs' on wario at 6:50:52 PM, Thur Mar 8, 2018 (process id: 703).
H = mpsImport( "spectre" "ipi" "v0.0" ?session "spectre0_13907_32" )
H->sclSetResultDir( "../psf" )
H->sclRun( "all" )
sclCkt0x97c7740 = H->sclGetCircuit(  "" )
sclParam0x97c7740 = H->sclGetParameter( sclCkt0x97c7740 "vsource" )
H->sclSetAttribute( sclParam0x97c7740 "value" "0.61" )
H->sclSetResultDir( "../psf" )
H->sclRun( "all" )
sclCkt0x97c7740 = H->sclGetCircuit(  "" )
sclParam0x97c7741 = H->sclGetParameter( sclCkt0x97c7740 "vsource" )
H->sclSetAttribute( sclParam0x97c7741 "value" "0.62" )
H->sclSetResultDir( "../psf" )
H->sclRun( "all" )
sclCkt0x97c7740 = H->sclGetCircuit(  "" )
sclParam0x97c7742 = H->sclGetParameter( sclCkt0x97c7740 "vsource" )
H->sclSetAttribute( sclParam0x97c7742 "value" "0.63" )
H->sclSetResultDir( "../psf" )
H->sclRun( "all" )
sclCkt0x97c7740 = H->sclGetCircuit(  "" )
sclParam0x97c7743 = H->sclGetParameter( sclCkt0x97c7740 "vsource" )
H->sclSetAttribute( sclParam0x97c7743 "value" "0.64" )
H->sclSetResultDir( "../psf" )
H->sclRun( "all" )
sclCkt0x97c7740 = H->sclGetCircuit(  "" )
sclParam0x97c7744 = H->sclGetParameter( sclCkt0x97c7740 "vsource" )
H->sclSetAttribute( sclParam0x97c7744 "value" "0.65" )
H->sclSetResultDir( "../psf" )
H->sclRun( "all" )
sclCkt0x97c7740 = H->sclGetCircuit(  "" )
sclParam0x97c7745 = H->sclGetParameter( sclCkt0x97c7740 "vsource" )
H->sclSetAttribute( sclParam0x97c7745 "value" "0.66" )
H->sclSetResultDir( "../psf" )
H->sclRun( "all" )
sclCkt0x97c7740 = H->sclGetCircuit(  "" )
sclParam0x97c7746 = H->sclGetParameter( sclCkt0x97c7740 "vsource" )
H->sclSetAttribute( sclParam0x97c7746 "value" "0.67" )
H->sclSetResultDir( "../psf" )
H->sclRun( "all" )
sclCkt0x97c7740 = H->sclGetCircuit(  "" )
sclParam0x97c7747 = H->sclGetParameter( sclCkt0x97c7740 "vsource" )
H->sclSetAttribute( sclParam0x97c7747 "value" "0.68" )
H->sclSetResultDir( "../psf" )
H->sclRun( "all" )
sclCkt0x97c7740 = H->sclGetCircuit(  "" )
sclParam0x97c7748 = H->sclGetParameter( sclCkt0x97c7740 "vsource" )
H->sclSetAttribute( sclParam0x97c7748 "value" "0.69" )
H->sclSetResultDir( "../psf" )
H->sclRun( "all" )
sclCkt0x97c7740 = H->sclGetCircuit(  "" )
sclParam0x97c7749 = H->sclGetParameter( sclCkt0x97c7740 "vsource" )
H->sclSetAttribute( sclParam0x97c7749 "value" "0.7" )
H->sclSetResultDir( "../psf" )
H->sclRun( "all" )
sclCkt0x97c7740 = H->sclGetCircuit(  "" )
sclParam0x97c774a = H->sclGetParameter( sclCkt0x97c7740 "vsource" )
H->sclSetAttribute( sclParam0x97c774a "value" "0.71" )
H->sclSetResultDir( "../psf" )
H->sclRun( "all" )
sclCkt0x97c7740 = H->sclGetCircuit(  "" )
sclParam0x97c774b = H->sclGetParameter( sclCkt0x97c7740 "vsource" )
H->sclSetAttribute( sclParam0x97c774b "value" "0.72" )
H->sclSetResultDir( "../psf" )
H->sclRun( "all" )
sclCkt0x97c7740 = H->sclGetCircuit(  "" )
sclParam0x97c774c = H->sclGetParameter( sclCkt0x97c7740 "vsource" )
H->sclSetAttribute( sclParam0x97c774c "value" "0.73" )
H->sclSetResultDir( "../psf" )
H->sclRun( "all" )
sclCkt0x97c7740 = H->sclGetCircuit(  "" )
sclParam0x97c774d = H->sclGetParameter( sclCkt0x97c7740 "vsource" )
H->sclSetAttribute( sclParam0x97c774d "value" "0.74" )
H->sclSetResultDir( "../psf" )
H->sclRun( "all" )
sclCkt0x97c7740 = H->sclGetCircuit(  "" )
sclParam0x97c774e = H->sclGetParameter( sclCkt0x97c7740 "vsource" )
H->sclSetAttribute( sclParam0x97c774e "value" "0.75" )
H->sclSetResultDir( "../psf" )
H->sclRun( "all" )
sclCkt0x97c7740 = H->sclGetCircuit(  "" )
sclParam0x97c774f = H->sclGetParameter( sclCkt0x97c7740 "vsource" )
H->sclSetAttribute( sclParam0x97c774f "value" "0.76" )
H->sclSetResultDir( "../psf" )
H->sclRun( "all" )
sclCkt0x97c7740 = H->sclGetCircuit(  "" )
sclParam0x97c7750 = H->sclGetParameter( sclCkt0x97c7740 "vsource" )
H->sclSetAttribute( sclParam0x97c7750 "value" "0.77" )
H->sclSetResultDir( "../psf" )
H->sclRun( "all" )
sclCkt0x97c7740 = H->sclGetCircuit(  "" )
sclParam0x97c7751 = H->sclGetParameter( sclCkt0x97c7740 "vsource" )
H->sclSetAttribute( sclParam0x97c7751 "value" "0.78" )
H->sclSetResultDir( "../psf" )
H->sclRun( "all" )
sclCkt0x97c7740 = H->sclGetCircuit(  "" )
sclParam0x97c7752 = H->sclGetParameter( sclCkt0x97c7740 "vsource" )
H->sclSetAttribute( sclParam0x97c7752 "value" "0.79" )
H->sclSetResultDir( "../psf" )
H->sclRun( "all" )
sclCkt0x97c7740 = H->sclGetCircuit(  "" )
sclParam0x97c7753 = H->sclGetParameter( sclCkt0x97c7740 "vsource" )
H->sclSetAttribute( sclParam0x97c7753 "value" "0.8" )
H->sclSetResultDir( "../psf" )
H->sclRun( "all" )
sclCkt0x97c7740 = H->sclGetCircuit(  "" )
sclParam0x97c7754 = H->sclGetParameter( sclCkt0x97c7740 "vsource" )
H->sclSetAttribute( sclParam0x97c7754 "value" "0.81" )
H->sclSetResultDir( "../psf" )
H->sclRun( "all" )
sclCkt0x97c7740 = H->sclGetCircuit(  "" )
sclParam0x97c7755 = H->sclGetParameter( sclCkt0x97c7740 "vsource" )
H->sclSetAttribute( sclParam0x97c7755 "value" "0.82" )
H->sclSetResultDir( "../psf" )
H->sclRun( "all" )
sclCkt0x97c7740 = H->sclGetCircuit(  "" )
sclParam0x97c7756 = H->sclGetParameter( sclCkt0x97c7740 "vsource" )
H->sclSetAttribute( sclParam0x97c7756 "value" "0.83" )
H->sclSetResultDir( "../psf" )
H->sclRun( "all" )
sclCkt0x97c7740 = H->sclGetCircuit(  "" )
sclParam0x97c7757 = H->sclGetParameter( sclCkt0x97c7740 "vsource" )
H->sclSetAttribute( sclParam0x97c7757 "value" "0.84" )
H->sclSetResultDir( "../psf" )
H->sclRun( "all" )
sclCkt0x97c7740 = H->sclGetCircuit(  "" )
sclParam0x97c7758 = H->sclGetParameter( sclCkt0x97c7740 "vsource" )
H->sclSetAttribute( sclParam0x97c7758 "value" "0.85" )
H->sclSetResultDir( "../psf" )
H->sclRun( "all" )
sclCkt0x97c7740 = H->sclGetCircuit(  "" )
sclParam0x97c7759 = H->sclGetParameter( sclCkt0x97c7740 "vsource" )
H->sclSetAttribute( sclParam0x97c7759 "value" "0.86" )
H->sclSetResultDir( "../psf" )
H->sclRun( "all" )
sclCkt0x97c7740 = H->sclGetCircuit(  "" )
sclParam0x97c775a = H->sclGetParameter( sclCkt0x97c7740 "vsource" )
H->sclSetAttribute( sclParam0x97c775a "value" "0.87" )
H->sclSetResultDir( "../psf" )
H->sclRun( "all" )
sclCkt0x97c7740 = H->sclGetCircuit(  "" )
sclParam0x97c775b = H->sclGetParameter( sclCkt0x97c7740 "vsource" )
H->sclSetAttribute( sclParam0x97c775b "value" "0.88" )
H->sclSetResultDir( "../psf" )
H->sclRun( "all" )
sclCkt0x97c7740 = H->sclGetCircuit(  "" )
sclParam0x97c775c = H->sclGetParameter( sclCkt0x97c7740 "vsource" )
H->sclSetAttribute( sclParam0x97c775c "value" "0.89" )
H->sclSetResultDir( "../psf" )
H->sclRun( "all" )
sclCkt0x97c7740 = H->sclGetCircuit(  "" )
sclParam0x97c775d = H->sclGetParameter( sclCkt0x97c7740 "vsource" )
H->sclSetAttribute( sclParam0x97c775d "value" "0.9" )
H->sclSetResultDir( "../psf" )
H->sclRun( "all" )
sclCkt0x97c7740 = H->sclGetCircuit(  "" )
sclParam0x97c775e = H->sclGetParameter( sclCkt0x97c7740 "vsource" )
H->sclSetAttribute( sclParam0x97c775e "value" "0.91" )
H->sclSetResultDir( "../psf" )
H->sclRun( "all" )
sclCkt0x97c7740 = H->sclGetCircuit(  "" )
sclParam0x97c775f = H->sclGetParameter( sclCkt0x97c7740 "vsource" )
H->sclSetAttribute( sclParam0x97c775f "value" "0.92" )
H->sclSetResultDir( "../psf" )
H->sclRun( "all" )
sclCkt0x97c7740 = H->sclGetCircuit(  "" )
sclParam0x97c7760 = H->sclGetParameter( sclCkt0x97c7740 "vsource" )
H->sclSetAttribute( sclParam0x97c7760 "value" "0.93" )
H->sclSetResultDir( "../psf" )
H->sclRun( "all" )
sclCkt0x97c7740 = H->sclGetCircuit(  "" )
sclParam0x97c7761 = H->sclGetParameter( sclCkt0x97c7740 "vsource" )
H->sclSetAttribute( sclParam0x97c7761 "value" "0.94" )
H->sclSetResultDir( "../psf" )
H->sclRun( "all" )
sclCkt0x97c7740 = H->sclGetCircuit(  "" )
sclParam0x97c7762 = H->sclGetParameter( sclCkt0x97c7740 "vsource" )
H->sclSetAttribute( sclParam0x97c7762 "value" "0.95" )
H->sclSetResultDir( "../psf" )
H->sclRun( "all" )
sclCkt0x97c7740 = H->sclGetCircuit(  "" )
sclParam0x97c7763 = H->sclGetParameter( sclCkt0x97c7740 "vsource" )
H->sclSetAttribute( sclParam0x97c7763 "value" "0.96" )
H->sclSetResultDir( "../psf" )
H->sclRun( "all" )
sclCkt0x97c7740 = H->sclGetCircuit(  "" )
sclParam0x97c7764 = H->sclGetParameter( sclCkt0x97c7740 "vsource" )
H->sclSetAttribute( sclParam0x97c7764 "value" "0.97" )
H->sclSetResultDir( "../psf" )
H->sclRun( "all" )
sclCkt0x97c7740 = H->sclGetCircuit(  "" )
sclParam0x97c7765 = H->sclGetParameter( sclCkt0x97c7740 "vsource" )
H->sclSetAttribute( sclParam0x97c7765 "value" "0.98" )
H->sclSetResultDir( "../psf" )
H->sclRun( "all" )
sclCkt0x97c7740 = H->sclGetCircuit(  "" )
sclParam0x97c7766 = H->sclGetParameter( sclCkt0x97c7740 "vsource" )
H->sclSetAttribute( sclParam0x97c7766 "value" "0.99" )
H->sclSetResultDir( "../psf" )
H->sclRun( "all" )
sclCkt0x97c7740 = H->sclGetCircuit(  "" )
sclParam0x97c7767 = H->sclGetParameter( sclCkt0x97c7740 "vsource" )
H->sclSetAttribute( sclParam0x97c7767 "value" "1" )
H->sclSetResultDir( "../psf" )
H->sclRun( "all" )
sclCkt0x97c7740 = H->sclGetCircuit(  "" )
sclParam0x97c7768 = H->sclGetParameter( sclCkt0x97c7740 "vsource" )
H->sclSetAttribute( sclParam0x97c7768 "value" "1.01" )
H->sclSetResultDir( "../psf" )
H->sclRun( "all" )
sclCkt0x97c7740 = H->sclGetCircuit(  "" )
sclParam0x97c7769 = H->sclGetParameter( sclCkt0x97c7740 "vsource" )
H->sclSetAttribute( sclParam0x97c7769 "value" "1.02" )
H->sclSetResultDir( "../psf" )
H->sclRun( "all" )
sclCkt0x97c7740 = H->sclGetCircuit(  "" )
sclParam0x97c776a = H->sclGetParameter( sclCkt0x97c7740 "vsource" )
H->sclSetAttribute( sclParam0x97c776a "value" "1.03" )
H->sclSetResultDir( "../psf" )
H->sclRun( "all" )
sclCkt0x97c7740 = H->sclGetCircuit(  "" )
sclParam0x97c776b = H->sclGetParameter( sclCkt0x97c7740 "vsource" )
H->sclSetAttribute( sclParam0x97c776b "value" "1.04" )
H->sclSetResultDir( "../psf" )
H->sclRun( "all" )
sclCkt0x97c7740 = H->sclGetCircuit(  "" )
sclParam0x97c776c = H->sclGetParameter( sclCkt0x97c7740 "vsource" )
H->sclSetAttribute( sclParam0x97c776c "value" "1.05" )
H->sclSetResultDir( "../psf" )
H->sclRun( "all" )
sclCkt0x97c7740 = H->sclGetCircuit(  "" )
sclParam0x97c776d = H->sclGetParameter( sclCkt0x97c7740 "vsource" )
H->sclSetAttribute( sclParam0x97c776d "value" "1.06" )
H->sclSetResultDir( "../psf" )
H->sclRun( "all" )
sclCkt0x97c7740 = H->sclGetCircuit(  "" )
sclParam0x97c776e = H->sclGetParameter( sclCkt0x97c7740 "vsource" )
H->sclSetAttribute( sclParam0x97c776e "value" "1.07" )
H->sclSetResultDir( "../psf" )
H->sclRun( "all" )
sclCkt0x97c7740 = H->sclGetCircuit(  "" )
sclParam0x97c776f = H->sclGetParameter( sclCkt0x97c7740 "vsource" )
H->sclSetAttribute( sclParam0x97c776f "value" "1.08" )
H->sclSetResultDir( "../psf" )
H->sclRun( "all" )
sclCkt0x97c7740 = H->sclGetCircuit(  "" )
sclParam0x97c7770 = H->sclGetParameter( sclCkt0x97c7740 "vsource" )
H->sclSetAttribute( sclParam0x97c7770 "value" "1.09" )
H->sclSetResultDir( "../psf" )
H->sclRun( "all" )
sclCkt0x97c7740 = H->sclGetCircuit(  "" )
sclParam0x97c7771 = H->sclGetParameter( sclCkt0x97c7740 "vsource" )
H->sclSetAttribute( sclParam0x97c7771 "value" "1.1" )
H->sclSetResultDir( "../psf" )
H->sclRun( "all" )
sclCkt0x97c7740 = H->sclGetCircuit(  "" )
sclParam0x97c7772 = H->sclGetParameter( sclCkt0x97c7740 "vsource" )
H->sclSetAttribute( sclParam0x97c7772 "value" "1.11" )
H->sclSetResultDir( "../psf" )
H->sclRun( "all" )
sclCkt0x97c7740 = H->sclGetCircuit(  "" )
sclParam0x97c7773 = H->sclGetParameter( sclCkt0x97c7740 "vsource" )
H->sclSetAttribute( sclParam0x97c7773 "value" "1.12" )
H->sclSetResultDir( "../psf" )
H->sclRun( "all" )
sclCkt0x97c7740 = H->sclGetCircuit(  "" )
sclParam0x97c7774 = H->sclGetParameter( sclCkt0x97c7740 "vsource" )
H->sclSetAttribute( sclParam0x97c7774 "value" "1.13" )
H->sclSetResultDir( "../psf" )
H->sclRun( "all" )
sclCkt0x97c7740 = H->sclGetCircuit(  "" )
sclParam0x97c7775 = H->sclGetParameter( sclCkt0x97c7740 "vsource" )
H->sclSetAttribute( sclParam0x97c7775 "value" "1.14" )
H->sclSetResultDir( "../psf" )
H->sclRun( "all" )
sclCkt0x97c7740 = H->sclGetCircuit(  "" )
sclParam0x97c7776 = H->sclGetParameter( sclCkt0x97c7740 "vsource" )
H->sclSetAttribute( sclParam0x97c7776 "value" "1.15" )
H->sclSetResultDir( "../psf" )
H->sclRun( "all" )
sclCkt0x97c7740 = H->sclGetCircuit(  "" )
sclParam0x97c7777 = H->sclGetParameter( sclCkt0x97c7740 "vsource" )
H->sclSetAttribute( sclParam0x97c7777 "value" "1.16" )
H->sclSetResultDir( "../psf" )
H->sclRun( "all" )
sclCkt0x97c7740 = H->sclGetCircuit(  "" )
sclParam0x97c7778 = H->sclGetParameter( sclCkt0x97c7740 "vsource" )
H->sclSetAttribute( sclParam0x97c7778 "value" "1.17" )
H->sclSetResultDir( "../psf" )
H->sclRun( "all" )
sclCkt0x97c7740 = H->sclGetCircuit(  "" )
sclParam0x97c7779 = H->sclGetParameter( sclCkt0x97c7740 "vsource" )
H->sclSetAttribute( sclParam0x97c7779 "value" "1.18" )
H->sclSetResultDir( "../psf" )
H->sclRun( "all" )
sclCkt0x97c7740 = H->sclGetCircuit(  "" )
sclParam0x97c777a = H->sclGetParameter( sclCkt0x97c7740 "vsource" )
H->sclSetAttribute( sclParam0x97c777a "value" "1.19" )
H->sclSetResultDir( "../psf" )
H->sclRun( "all" )
sclCkt0x97c7740 = H->sclGetCircuit(  "" )
sclParam0x97c777b = H->sclGetParameter( sclCkt0x97c7740 "vsource" )
H->sclSetAttribute( sclParam0x97c777b "value" "1.2" )
H->sclSetResultDir( "../psf" )
H->sclRun( "all" )
sclCkt0x97c7740 = H->sclGetCircuit(  "" )
H->sclQuit(  )
