
Spectre (R) Circuit Simulator
Version 16.1.0.479.isr9 64bit -- 7 Sep 2017
Copyright (C) 1989-2017 Cadence Design Systems, Inc. All rights reserved worldwide. Cadence and Spectre are registered trademarks of Cadence Design Systems, Inc. All others are the property of their respective holders.

Includes RSA BSAFE(R) Cryptographic or Security Protocol Software from RSA Security, Inc.

User: agroszewski   Host: wario   HostID: 6924DDD   PID: 32227
Memory  available: 40.2771 GB  physical: 101.4334 GB
Linux   : CentOS release 6.9 (Final)
CPU Type: Intel(R) Xeon(R) CPU           X5660  @ 2.80GHz
        Socket: Processors [Frequency] (Hyperthreaded Processor)
        0:       0 [1600.0] ( 12 ),  1 [1600.0] ( 13 ),  2 [1600.0] ( 14 )
                 3 [1600.0] ( 15 ),  4 [1600.0] ( 16 ),  5 [1600.0] ( 17 )
        1:       6 [2801.0] ( 18 ),  7 [1600.0] ( 19 ),  8 [1600.0] ( 20 )
                 9 [1600.0] ( 21 ), 10 [1600.0] ( 22 ), 11 [1600.0] ( 23 )
        
System load averages (1min, 5min, 15min) : 777.5 %, 778.0 %, 778.3 %
Hyperthreading is enabled


Simulating `input.scs' on wario at 9:54:29 PM, Wed Feb 28, 2018 (process id: 32227).
Current working directory: /home/ecelrc/students/agroszewski/simulation/nmos_3stack_sim/spectre/schematic/netlist
Command line:
    /usr/local/packages/cadence_2017/spectre161/tools.lnx86/bin/spectre  \
        -64 input.scs +escchars +log ../psf/spectre.out +inter=mpsc  \
        +mpssession=spectre0_20019_2 -format psfxl -raw ../psf  \
        +lqtimeout 900 -maxw 5 -maxn 5
spectre pid = 32227

Loading /usr/local/packages/cadence_2017/spectre161/tools.lnx86/cmi/lib/64bit/5.0/libinfineon_sh.so ...
Loading /usr/local/packages/cadence_2017/spectre161/tools.lnx86/cmi/lib/64bit/5.0/libphilips_o_sh.so ...
Loading /usr/local/packages/cadence_2017/spectre161/tools.lnx86/cmi/lib/64bit/5.0/libphilips_sh.so ...
Loading /usr/local/packages/cadence_2017/spectre161/tools.lnx86/cmi/lib/64bit/5.0/libsparam_sh.so ...
Loading /usr/local/packages/cadence_2017/spectre161/tools.lnx86/cmi/lib/64bit/5.0/libstmodels_sh.so ...
Reading file:  /home/ecelrc/students/agroszewski/simulation/nmos_3stack_sim/spectre/schematic/netlist/input.scs
Reading link:  /usr/local/packages
Reading file:  /misc/linuxws/packages/cadence_2017/spectre161/tools.lnx86/spectre/etc/configs/mapsubckt.cfg
Reading file:  /misc/linuxws/packages/cadence_2017/spectre161/tools.lnx86/spectre/etc/configs/spectre.cfg
Reading file:  /misc/scratch/ajgrosze/lpr/schematics/models/32nm_LP.pm
Time for NDB Parsing: CPU = 113.982 ms, elapsed = 237.847 ms.
Time accumulated: CPU = 142.977 ms, elapsed = 237.853 ms.
Peak resident memory used = 44.7 Mbytes.


The CPU load for active processors is :
        Spectre  0 (4.8 %)       1 (8.3 %)       2 (4.2 %)       6 (100.0 %)
                 7 (4.3 %)       8 (16.0 %)     12 (4.2 %)      13 (4.3 %)
                14 (17.4 %)     15 (8.3 %)      16 (13.6 %)     18 (4.0 %)
                20 (36.0 %)     21 (20.8 %)     23 (40.9 %)     
        Other   
Reading link:  /usr/local/packages/cadence_2017/spectre161/tools.lnx86/spectre/etc/ahdl/discipline.h
Reading file:  /misc/linuxws/packages/cadence_2017/spectre161/tools.lnx86/spectre/etc/ahdl/disciplines.vams
Reading link:  /usr/local/packages/cadence_2017/spectre161/tools.lnx86/spectre/etc/ahdl/constants.h
Reading file:  /misc/linuxws/packages/cadence_2017/spectre161/tools.lnx86/spectre/etc/ahdl/constants.vams
Time for Elaboration: CPU = 19.997 ms, elapsed = 23.4709 ms.
Time accumulated: CPU = 163.974 ms, elapsed = 261.548 ms.
Peak resident memory used = 51.1 Mbytes.


Time for EDB Visiting: CPU = 1 ms, elapsed = 650.883 us.
Time accumulated: CPU = 164.974 ms, elapsed = 262.316 ms.
Peak resident memory used = 51.7 Mbytes.


Notice from spectre during topology check.
    No connections to node `0'.
    No DC path from node `net010' to ground, Gmin installed to provide path.


Global user options:
             reltol = 0.001
            vabstol = 1e-06
            iabstol = 1e-12
               temp = 27
               gmin = 1e-12
             rforce = 1
           maxnotes = 5
           maxwarns = 5
             digits = 5
               cols = 80
             pivrel = 0.001
           sensfile = ../psf/sens.output
     checklimitdest = psf
               save = allpub
               tnom = 27
             scalem = 1
              scale = 1

Scoped user options:

Circuit inventory:
              nodes 7
              bsim4 3     
            vsource 4     

Analysis and control statement inventory:
                 dc 1     
               info 7     

Output statements:
             .probe 0     
           .measure 0     
               save 1     

Time for parsing: CPU = 2.999 ms, elapsed = 3.62206 ms.
Time accumulated: CPU = 167.973 ms, elapsed = 266.045 ms.
Peak resident memory used = 53 Mbytes.

~~~~~~~~~~~~~~~~~~~~~~
Pre-Simulation Summary
~~~~~~~~~~~~~~~~~~~~~~

Warning from spectre.
    WARNING (SPECTRE-470): No connections to node `gnd'.

~~~~~~~~~~~~~~~~~~~~~~
Entering remote command mode using MPSC service (spectre, ipi, v0.0, spectre0_20019_2, ).

Warning from spectre.
    WARNING (SPECTRE-16707): Only tran supports psfxl format, result of other analyses will be in psfbin format.


******************
DC Analysis `dcOp'
******************

Opening the PSF file ../psf/dcOp.dc ...
Important parameter values:
    reltol = 1e-03
    abstol(V) = 1 uV
    abstol(I) = 1 pA
    temp = 27 C
    tnom = 27 C
    tempeffects = all
    gmindc = 1 pS

Notice from spectre during DC analysis `dcOp'.
    GminDC = 1 pS is large enough to noticeably affect the DC solution.
        dV(net011) = 109.995 mV
        Use the `gmin_check' option to eliminate or expand this report.


Maximum value achieved for any signal of each quantity: 
V: V(net04) = 1.2 V
I: I(V0:p) = 2.293 pA
Convergence achieved in 6 iterations.
DC simulation time: CPU = 172.973 ms, elapsed = 309.164 ms.
Total time required for dc analysis `dcOp': CPU = 4 ms, elapsed = 7.50995 ms.
Time accumulated: CPU = 172.973 ms, elapsed = 310.107 ms.
Peak resident memory used = 54.5 Mbytes.

dcOpInfo: writing operating point information to rawfile.

Opening the PSF file ../psf/dcOpInfo.info ...
modelParameter: writing model parameter values to rawfile.

Opening the PSF file ../psf/modelParameter.info ...
element: writing instance parameter values to rawfile.

Opening the PSF file ../psf/element.info ...
outputParameter: writing output parameter values to rawfile.

Opening the PSF file ../psf/outputParameter.info ...
designParamVals: writing netlist parameters to rawfile.

Opening the PSFASCII file ../psf/designParamVals.info ...
primitives: writing primitives to rawfile.

Opening the PSFASCII file ../psf/primitives.info.primitives ...
subckts: writing subcircuits to rawfile.

Opening the PSFASCII file ../psf/subckts.info.subckts ...

Warning from spectre.
    WARNING (SPECTRE-16707): Only tran supports psfxl format, result of other analyses will be in psfbin format.


******************
DC Analysis `dcOp'
******************

Opening the PSF file ../psf/dcOp.dc ...
Important parameter values:
    reltol = 1e-03
    abstol(V) = 1 uV
    abstol(I) = 1 pA
    temp = 27 C
    tnom = 27 C
    tempeffects = all
    gmindc = 1 pS

Notice from spectre during DC analysis `dcOp'.
    GminDC = 1 pS is large enough to noticeably affect the DC solution.
        dV(net07) = 26.2871 mV
        Use the `gmin_check' option to eliminate or expand this report.


Maximum value achieved for any signal of each quantity: 
V: V(net04) = 1.2 V
I: I(V0:p) = 4.377 pA
Convergence achieved in 14 iterations.
DC simulation time: CPU = 215.966 ms, elapsed = 41.3925 s.
Total time required for dc analysis `dcOp': CPU = 1.999 ms, elapsed = 7.48396 ms.
Time accumulated: CPU = 216.966 ms, elapsed = 41.3936 s.
Peak resident memory used = 55.7 Mbytes.

dcOpInfo: writing operating point information to rawfile.

Opening the PSF file ../psf/dcOpInfo.info ...
modelParameter: writing model parameter values to rawfile.

Opening the PSF file ../psf/modelParameter.info ...
element: writing instance parameter values to rawfile.

Opening the PSF file ../psf/element.info ...
outputParameter: writing output parameter values to rawfile.

Opening the PSF file ../psf/outputParameter.info ...
designParamVals: writing netlist parameters to rawfile.

Opening the PSFASCII file ../psf/designParamVals.info ...
primitives: writing primitives to rawfile.

Opening the PSFASCII file ../psf/primitives.info.primitives ...
subckts: writing subcircuits to rawfile.

Opening the PSFASCII file ../psf/subckts.info.subckts ...

Warning from spectre.
    WARNING (SPECTRE-16707): Only tran supports psfxl format, result of other analyses will be in psfbin format.


******************
DC Analysis `dcOp'
******************

Opening the PSF file ../psf/dcOp.dc ...
Important parameter values:
    reltol = 1e-03
    abstol(V) = 1 uV
    abstol(I) = 1 pA
    temp = 27 C
    tnom = 27 C
    tempeffects = all
    gmindc = 1 pS

Notice from spectre during DC analysis `dcOp'.
    GminDC = 1 pS is large enough to noticeably affect the DC solution.
        dV(net011) = -8.74205 mV
        Use the `gmin_check' option to eliminate or expand this report.


Maximum value achieved for any signal of each quantity: 
V: V(net03) = 1.2 V
I: I(V0:p) = 13.84 pA
Convergence achieved in 15 iterations.
DC simulation time: CPU = 260.959 ms, elapsed = 81.0439 s.
Total time required for dc analysis `dcOp': CPU = 2.999 ms, elapsed = 7.13706 ms.
Time accumulated: CPU = 260.959 ms, elapsed = 81.045 s (1m  21.0s).
Peak resident memory used = 56.2 Mbytes.

dcOpInfo: writing operating point information to rawfile.

Opening the PSF file ../psf/dcOpInfo.info ...
modelParameter: writing model parameter values to rawfile.

Opening the PSF file ../psf/modelParameter.info ...
element: writing instance parameter values to rawfile.

Opening the PSF file ../psf/element.info ...
outputParameter: writing output parameter values to rawfile.

Opening the PSF file ../psf/outputParameter.info ...
designParamVals: writing netlist parameters to rawfile.

Opening the PSFASCII file ../psf/designParamVals.info ...
primitives: writing primitives to rawfile.

Opening the PSFASCII file ../psf/primitives.info.primitives ...
subckts: writing subcircuits to rawfile.

Opening the PSFASCII file ../psf/subckts.info.subckts ...

Warning from spectre.
    WARNING (SPECTRE-16707): Only tran supports psfxl format, result of other analyses will be in psfbin format.


******************
DC Analysis `dcOp'
******************

Opening the PSF file ../psf/dcOp.dc ...
Important parameter values:
    reltol = 1e-03
    abstol(V) = 1 uV
    abstol(I) = 1 pA
    temp = 27 C
    tnom = 27 C
    tempeffects = all
    gmindc = 1 pS

Notice from spectre during DC analysis `dcOp'.
    GminDC = 1 pS is large enough to noticeably affect the DC solution.
        dV(Mb:int_g) = -133.116 uV
        Use the `gmin_check' option to eliminate or expand this report.


Maximum value achieved for any signal of each quantity: 
V: V(vss!) = 1.2 V
I: I(V0:p) = 94.45 uA
Convergence achieved in 6 iterations.
DC simulation time: CPU = 306.952 ms, elapsed = 128.452 s.
Total time required for dc analysis `dcOp': CPU = 2.999 ms, elapsed = 6.83498 ms.
Time accumulated: CPU = 306.952 ms, elapsed = 128.453 s (2m  8.5s).
Peak resident memory used = 56.7 Mbytes.

dcOpInfo: writing operating point information to rawfile.

Opening the PSF file ../psf/dcOpInfo.info ...
modelParameter: writing model parameter values to rawfile.

Opening the PSF file ../psf/modelParameter.info ...
element: writing instance parameter values to rawfile.

Opening the PSF file ../psf/element.info ...
outputParameter: writing output parameter values to rawfile.

Opening the PSF file ../psf/outputParameter.info ...
designParamVals: writing netlist parameters to rawfile.

Opening the PSFASCII file ../psf/designParamVals.info ...
primitives: writing primitives to rawfile.

Opening the PSFASCII file ../psf/primitives.info.primitives ...
subckts: writing subcircuits to rawfile.

Opening the PSFASCII file ../psf/subckts.info.subckts ...

Warning from spectre.
    WARNING (SPECTRE-16707): Only tran supports psfxl format, result of other analyses will be in psfbin format.


******************
DC Analysis `dcOp'
******************

Opening the PSF file ../psf/dcOp.dc ...
Important parameter values:
    reltol = 1e-03
    abstol(V) = 1 uV
    abstol(I) = 1 pA
    temp = 27 C
    tnom = 27 C
    tempeffects = all
    gmindc = 1 pS

Notice from spectre during DC analysis `dcOp'.
    GminDC = 1 pS is large enough to noticeably affect the DC solution.
        dV(net011) = 40.4899 mV
        Use the `gmin_check' option to eliminate or expand this report.


Maximum value achieved for any signal of each quantity: 
V: V(Ma:int_g) = 1.2 V
I: I(Vc:p) = 380.4 pA
Convergence achieved in 6 iterations.
DC simulation time: CPU = 353.945 ms, elapsed = 158.43 s.
Total time required for dc analysis `dcOp': CPU = 3 ms, elapsed = 6.64496 ms.
Time accumulated: CPU = 353.945 ms, elapsed = 158.431 s (2m  38.4s).
Peak resident memory used = 57.1 Mbytes.

dcOpInfo: writing operating point information to rawfile.

Opening the PSF file ../psf/dcOpInfo.info ...
modelParameter: writing model parameter values to rawfile.

Opening the PSF file ../psf/modelParameter.info ...
element: writing instance parameter values to rawfile.

Opening the PSF file ../psf/element.info ...
outputParameter: writing output parameter values to rawfile.

Opening the PSF file ../psf/outputParameter.info ...
designParamVals: writing netlist parameters to rawfile.

Opening the PSFASCII file ../psf/designParamVals.info ...
primitives: writing primitives to rawfile.

Opening the PSFASCII file ../psf/primitives.info.primitives ...
subckts: writing subcircuits to rawfile.

Opening the PSFASCII file ../psf/subckts.info.subckts ...

Warning from spectre.
    WARNING (SPECTRE-16707): Only tran supports psfxl format, result of other analyses will be in psfbin format.


******************
DC Analysis `dcOp'
******************

Opening the PSF file ../psf/dcOp.dc ...
Important parameter values:
    reltol = 1e-03
    abstol(V) = 1 uV
    abstol(I) = 1 pA
    temp = 27 C
    tnom = 27 C
    tempeffects = all
    gmindc = 1 pS

Notice from spectre during DC analysis `dcOp'.
    GminDC = 1 pS is large enough to noticeably affect the DC solution.
        dV(net011) = -18.4486 mV
        Use the `gmin_check' option to eliminate or expand this report.


Maximum value achieved for any signal of each quantity: 
V: V(net03) = 1.2 V
I: I(Vb:p) = 4.978 pA
Convergence achieved in 5 iterations.
DC simulation time: CPU = 400.938 ms, elapsed = 186.078 s.
Total time required for dc analysis `dcOp': CPU = 1.999 ms, elapsed = 6.93297 ms.
Time accumulated: CPU = 400.938 ms, elapsed = 186.079 s (3m  6.1s).
Peak resident memory used = 57.6 Mbytes.

dcOpInfo: writing operating point information to rawfile.

Opening the PSF file ../psf/dcOpInfo.info ...
modelParameter: writing model parameter values to rawfile.

Opening the PSF file ../psf/modelParameter.info ...
element: writing instance parameter values to rawfile.

Opening the PSF file ../psf/element.info ...
outputParameter: writing output parameter values to rawfile.

Opening the PSF file ../psf/outputParameter.info ...
designParamVals: writing netlist parameters to rawfile.

Opening the PSFASCII file ../psf/designParamVals.info ...
primitives: writing primitives to rawfile.

Opening the PSFASCII file ../psf/primitives.info.primitives ...
subckts: writing subcircuits to rawfile.

Opening the PSFASCII file ../psf/subckts.info.subckts ...

Warning from spectre.
    WARNING (SPECTRE-16707): Only tran supports psfxl format, result of other analyses will be in psfbin format.


******************
DC Analysis `dcOp'
******************

Opening the PSF file ../psf/dcOp.dc ...
Important parameter values:
    reltol = 1e-03
    abstol(V) = 1 uV
    abstol(I) = 1 pA
    temp = 27 C
    tnom = 27 C
    tempeffects = all
    gmindc = 1 pS

Notice from spectre during DC analysis `dcOp'.
    GminDC = 1 pS is large enough to noticeably affect the DC solution.
        dV(Mc:int_g) = -133.156 uV
        Use the `gmin_check' option to eliminate or expand this report.


Maximum value achieved for any signal of each quantity: 
V: V(Ma:int_g) = 1.2 V
I: I(Vc:p) = 380.4 pA
Convergence achieved in 7 iterations.
DC simulation time: CPU = 445.931 ms, elapsed = 259.415 s.
Total time required for dc analysis `dcOp': CPU = 2 ms, elapsed = 7.303 ms.
Time accumulated: CPU = 446.931 ms, elapsed = 259.416 s (4m  19.4s).
Peak resident memory used = 58 Mbytes.

dcOpInfo: writing operating point information to rawfile.

Opening the PSF file ../psf/dcOpInfo.info ...
modelParameter: writing model parameter values to rawfile.

Opening the PSF file ../psf/modelParameter.info ...
element: writing instance parameter values to rawfile.

Opening the PSF file ../psf/element.info ...
outputParameter: writing output parameter values to rawfile.

Opening the PSF file ../psf/outputParameter.info ...
designParamVals: writing netlist parameters to rawfile.

Opening the PSFASCII file ../psf/designParamVals.info ...
primitives: writing primitives to rawfile.

Opening the PSFASCII file ../psf/primitives.info.primitives ...
subckts: writing subcircuits to rawfile.

Opening the PSFASCII file ../psf/subckts.info.subckts ...

Warning from spectre.
    WARNING (SPECTRE-16707): Only tran supports psfxl format, result of other analyses will be in psfbin format.


******************
DC Analysis `dcOp'
******************

Opening the PSF file ../psf/dcOp.dc ...
Important parameter values:
    reltol = 1e-03
    abstol(V) = 1 uV
    abstol(I) = 1 pA
    temp = 27 C
    tnom = 27 C
    tempeffects = all
    gmindc = 1 pS

Notice from spectre during DC analysis `dcOp'.
    GminDC = 1 pS is large enough to noticeably affect the DC solution.
        dV(net07) = 26.2871 mV
        Use the `gmin_check' option to eliminate or expand this report.


Maximum value achieved for any signal of each quantity: 
V: V(net04) = 1.2 V
I: I(V0:p) = 4.377 pA
Convergence achieved in 14 iterations.
DC simulation time: CPU = 492.924 ms, elapsed = 303.994 s.
Total time required for dc analysis `dcOp': CPU = 1.999 ms, elapsed = 7.03597 ms.
Time accumulated: CPU = 492.924 ms, elapsed = 303.996 s (5m  4.0s).
Peak resident memory used = 58.5 Mbytes.

dcOpInfo: writing operating point information to rawfile.

Opening the PSF file ../psf/dcOpInfo.info ...
modelParameter: writing model parameter values to rawfile.

Opening the PSF file ../psf/modelParameter.info ...
element: writing instance parameter values to rawfile.

Opening the PSF file ../psf/element.info ...
outputParameter: writing output parameter values to rawfile.

Opening the PSF file ../psf/outputParameter.info ...
designParamVals: writing netlist parameters to rawfile.

Opening the PSFASCII file ../psf/designParamVals.info ...
primitives: writing primitives to rawfile.

Opening the PSFASCII file ../psf/primitives.info.primitives ...
subckts: writing subcircuits to rawfile.

Opening the PSFASCII file ../psf/subckts.info.subckts ...

Warning from spectre.
    WARNING (SPECTRE-16707): Only tran supports psfxl format, result of other analyses will be in psfbin format.


******************
DC Analysis `dcOp'
******************

Opening the PSF file ../psf/dcOp.dc ...
Important parameter values:
    reltol = 1e-03
    abstol(V) = 1 uV
    abstol(I) = 1 pA
    temp = 27 C
    tnom = 27 C
    tempeffects = all
    gmindc = 1 pS

Notice from spectre during DC analysis `dcOp'.
    GminDC = 1 pS is large enough to noticeably affect the DC solution.
        dV(net011) = -5.70524 mV
        Use the `gmin_check' option to eliminate or expand this report.


Maximum value achieved for any signal of each quantity: 
V: V(Mb:int_g) = 1.2 V
I: I(Vc:p) = 380.4 pA
Convergence achieved in 11 iterations.
DC simulation time: CPU = 535.917 ms, elapsed = 316.995 s.
Total time required for dc analysis `dcOp': CPU = 2.999 ms, elapsed = 7.40719 ms.
Time accumulated: CPU = 535.917 ms, elapsed = 316.996 s (5m  17.0s).
Peak resident memory used = 58.9 Mbytes.

dcOpInfo: writing operating point information to rawfile.

Opening the PSF file ../psf/dcOpInfo.info ...
modelParameter: writing model parameter values to rawfile.

Opening the PSF file ../psf/modelParameter.info ...
element: writing instance parameter values to rawfile.

Opening the PSF file ../psf/element.info ...
outputParameter: writing output parameter values to rawfile.

Opening the PSF file ../psf/outputParameter.info ...
designParamVals: writing netlist parameters to rawfile.

Opening the PSFASCII file ../psf/designParamVals.info ...
primitives: writing primitives to rawfile.

Opening the PSFASCII file ../psf/primitives.info.primitives ...
subckts: writing subcircuits to rawfile.

Opening the PSFASCII file ../psf/subckts.info.subckts ...

Warning from spectre.
    WARNING (SPECTRE-16707): Only tran supports psfxl format, result of other analyses will be in psfbin format.


******************
DC Analysis `dcOp'
******************

Opening the PSF file ../psf/dcOp.dc ...
Important parameter values:
    reltol = 1e-03
    abstol(V) = 1 uV
    abstol(I) = 1 pA
    temp = 27 C
    tnom = 27 C
    tempeffects = all
    gmindc = 1 pS

Notice from spectre during DC analysis `dcOp'.
    GminDC = 1 pS is large enough to noticeably affect the DC solution.
        dV(net011) = -18.4486 mV
        Use the `gmin_check' option to eliminate or expand this report.


Maximum value achieved for any signal of each quantity: 
V: V(net03) = 1.2 V
I: I(Vb:p) = 4.978 pA
Convergence achieved in 5 iterations.
DC simulation time: CPU = 582.91 ms, elapsed = 377.21 s.
Total time required for dc analysis `dcOp': CPU = 2.999 ms, elapsed = 7.42412 ms.
Time accumulated: CPU = 582.91 ms, elapsed = 377.212 s (6m  17.2s).
Peak resident memory used = 59.4 Mbytes.

dcOpInfo: writing operating point information to rawfile.

Opening the PSF file ../psf/dcOpInfo.info ...
modelParameter: writing model parameter values to rawfile.

Opening the PSF file ../psf/modelParameter.info ...
element: writing instance parameter values to rawfile.

Opening the PSF file ../psf/element.info ...
outputParameter: writing output parameter values to rawfile.

Opening the PSF file ../psf/outputParameter.info ...
designParamVals: writing netlist parameters to rawfile.

Opening the PSFASCII file ../psf/designParamVals.info ...
primitives: writing primitives to rawfile.

Opening the PSFASCII file ../psf/primitives.info.primitives ...
subckts: writing subcircuits to rawfile.

Opening the PSFASCII file ../psf/subckts.info.subckts ...

Aggregate audit (10:46:44 PM, Wed Feb 28, 2018):
Time used: CPU = 691 ms, elapsed = 3.13 ks (52m  14.9s), util. = 22e-03%.
Time spent in licensing: elapsed = 19.9 ms.
Peak memory used = 60.2 Mbytes.
Simulation started at: 9:54:29 PM, Wed Feb 28, 2018, ended at: 10:46:44 PM, Wed Feb 28, 2018, with elapsed time (wall clock): 3.13 ks (52m  14.9s).
spectre completes with 0 errors, 11 warnings, and 12 notices.
